* NGSPICE file created from DSP48.ext - technology: gf180mcuC

* Black-box entry subcircuit for gf180mcu_fd_sc_mcu7t5v0__fill_2 abstract view
.subckt gf180mcu_fd_sc_mcu7t5v0__fill_2 VDD VSS
.ends

* Black-box entry subcircuit for gf180mcu_fd_sc_mcu7t5v0__fill_1 abstract view
.subckt gf180mcu_fd_sc_mcu7t5v0__fill_1 VDD VSS
.ends

* Black-box entry subcircuit for gf180mcu_fd_sc_mcu7t5v0__fillcap_16 abstract view
.subckt gf180mcu_fd_sc_mcu7t5v0__fillcap_16 VDD VSS
.ends

* Black-box entry subcircuit for gf180mcu_fd_sc_mcu7t5v0__nor2_2 abstract view
.subckt gf180mcu_fd_sc_mcu7t5v0__nor2_2 A1 A2 ZN VDD VSS
.ends

* Black-box entry subcircuit for gf180mcu_fd_sc_mcu7t5v0__antenna abstract view
.subckt gf180mcu_fd_sc_mcu7t5v0__antenna I VDD VSS
.ends

* Black-box entry subcircuit for gf180mcu_fd_sc_mcu7t5v0__fillcap_4 abstract view
.subckt gf180mcu_fd_sc_mcu7t5v0__fillcap_4 VDD VSS
.ends

* Black-box entry subcircuit for gf180mcu_fd_sc_mcu7t5v0__oai21_2 abstract view
.subckt gf180mcu_fd_sc_mcu7t5v0__oai21_2 A1 A2 B ZN VDD VSS
.ends

* Black-box entry subcircuit for gf180mcu_fd_sc_mcu7t5v0__and2_2 abstract view
.subckt gf180mcu_fd_sc_mcu7t5v0__and2_2 A1 A2 Z VDD VSS
.ends

* Black-box entry subcircuit for gf180mcu_fd_sc_mcu7t5v0__xnor2_2 abstract view
.subckt gf180mcu_fd_sc_mcu7t5v0__xnor2_2 A1 A2 ZN VDD VSS
.ends

* Black-box entry subcircuit for gf180mcu_fd_sc_mcu7t5v0__fillcap_64 abstract view
.subckt gf180mcu_fd_sc_mcu7t5v0__fillcap_64 VDD VSS
.ends

* Black-box entry subcircuit for gf180mcu_fd_sc_mcu7t5v0__xor3_2 abstract view
.subckt gf180mcu_fd_sc_mcu7t5v0__xor3_2 A1 A2 A3 Z VDD VSS
.ends

* Black-box entry subcircuit for gf180mcu_fd_sc_mcu7t5v0__fillcap_8 abstract view
.subckt gf180mcu_fd_sc_mcu7t5v0__fillcap_8 VDD VSS
.ends

* Black-box entry subcircuit for gf180mcu_fd_sc_mcu7t5v0__clkbuf_2 abstract view
.subckt gf180mcu_fd_sc_mcu7t5v0__clkbuf_2 I Z VDD VSS
.ends

* Black-box entry subcircuit for gf180mcu_fd_sc_mcu7t5v0__nand3_2 abstract view
.subckt gf180mcu_fd_sc_mcu7t5v0__nand3_2 A1 A2 A3 ZN VDD VSS
.ends

* Black-box entry subcircuit for gf180mcu_fd_sc_mcu7t5v0__filltie abstract view
.subckt gf180mcu_fd_sc_mcu7t5v0__filltie VDD VSS
.ends

* Black-box entry subcircuit for gf180mcu_fd_sc_mcu7t5v0__nand2_2 abstract view
.subckt gf180mcu_fd_sc_mcu7t5v0__nand2_2 A1 A2 ZN VDD VSS
.ends

* Black-box entry subcircuit for gf180mcu_fd_sc_mcu7t5v0__or2_2 abstract view
.subckt gf180mcu_fd_sc_mcu7t5v0__or2_2 A1 A2 Z VDD VSS
.ends

* Black-box entry subcircuit for gf180mcu_fd_sc_mcu7t5v0__clkbuf_1 abstract view
.subckt gf180mcu_fd_sc_mcu7t5v0__clkbuf_1 I Z VDD VSS
.ends

* Black-box entry subcircuit for gf180mcu_fd_sc_mcu7t5v0__or3_2 abstract view
.subckt gf180mcu_fd_sc_mcu7t5v0__or3_2 A1 A2 A3 Z VDD VSS
.ends

* Black-box entry subcircuit for gf180mcu_fd_sc_mcu7t5v0__clkinv_1 abstract view
.subckt gf180mcu_fd_sc_mcu7t5v0__clkinv_1 I ZN VDD VSS
.ends

* Black-box entry subcircuit for gf180mcu_fd_sc_mcu7t5v0__fillcap_32 abstract view
.subckt gf180mcu_fd_sc_mcu7t5v0__fillcap_32 VDD VSS
.ends

* Black-box entry subcircuit for gf180mcu_fd_sc_mcu7t5v0__nor3_2 abstract view
.subckt gf180mcu_fd_sc_mcu7t5v0__nor3_2 A1 A2 A3 ZN VDD VSS
.ends

* Black-box entry subcircuit for gf180mcu_fd_sc_mcu7t5v0__xnor3_2 abstract view
.subckt gf180mcu_fd_sc_mcu7t5v0__xnor3_2 A1 A2 A3 ZN VDD VSS
.ends

* Black-box entry subcircuit for gf180mcu_fd_sc_mcu7t5v0__mux2_2 abstract view
.subckt gf180mcu_fd_sc_mcu7t5v0__mux2_2 I0 I1 S Z VDD VSS
.ends

* Black-box entry subcircuit for gf180mcu_fd_sc_mcu7t5v0__aoi211_2 abstract view
.subckt gf180mcu_fd_sc_mcu7t5v0__aoi211_2 A1 A2 B C ZN VDD VSS
.ends

* Black-box entry subcircuit for gf180mcu_fd_sc_mcu7t5v0__dffq_1 abstract view
.subckt gf180mcu_fd_sc_mcu7t5v0__dffq_1 D CLK Q VDD VSS
.ends

* Black-box entry subcircuit for gf180mcu_fd_sc_mcu7t5v0__aoi222_1 abstract view
.subckt gf180mcu_fd_sc_mcu7t5v0__aoi222_1 A1 A2 B1 B2 C1 C2 ZN VDD VSS
.ends

* Black-box entry subcircuit for gf180mcu_fd_sc_mcu7t5v0__xor2_2 abstract view
.subckt gf180mcu_fd_sc_mcu7t5v0__xor2_2 A1 A2 Z VDD VSS
.ends

* Black-box entry subcircuit for gf180mcu_fd_sc_mcu7t5v0__dffq_2 abstract view
.subckt gf180mcu_fd_sc_mcu7t5v0__dffq_2 D CLK Q VDD VSS
.ends

* Black-box entry subcircuit for gf180mcu_fd_sc_mcu7t5v0__buf_1 abstract view
.subckt gf180mcu_fd_sc_mcu7t5v0__buf_1 I Z VDD VSS
.ends

* Black-box entry subcircuit for gf180mcu_fd_sc_mcu7t5v0__and3_2 abstract view
.subckt gf180mcu_fd_sc_mcu7t5v0__and3_2 A1 A2 A3 Z VDD VSS
.ends

* Black-box entry subcircuit for gf180mcu_fd_sc_mcu7t5v0__clkbuf_16 abstract view
.subckt gf180mcu_fd_sc_mcu7t5v0__clkbuf_16 I Z VDD VSS
.ends

* Black-box entry subcircuit for gf180mcu_fd_sc_mcu7t5v0__dlyb_1 abstract view
.subckt gf180mcu_fd_sc_mcu7t5v0__dlyb_1 I Z VDD VSS
.ends

* Black-box entry subcircuit for gf180mcu_fd_sc_mcu7t5v0__endcap abstract view
.subckt gf180mcu_fd_sc_mcu7t5v0__endcap VDD VSS
.ends

* Black-box entry subcircuit for gf180mcu_fd_sc_mcu7t5v0__aoi211_4 abstract view
.subckt gf180mcu_fd_sc_mcu7t5v0__aoi211_4 A1 A2 B C ZN VDD VSS
.ends

* Black-box entry subcircuit for gf180mcu_fd_sc_mcu7t5v0__inv_1 abstract view
.subckt gf180mcu_fd_sc_mcu7t5v0__inv_1 I ZN VDD VSS
.ends

* Black-box entry subcircuit for gf180mcu_fd_sc_mcu7t5v0__aoi221_4 abstract view
.subckt gf180mcu_fd_sc_mcu7t5v0__aoi221_4 A1 A2 B1 B2 C ZN VDD VSS
.ends

* Black-box entry subcircuit for gf180mcu_fd_sc_mcu7t5v0__nor4_4 abstract view
.subckt gf180mcu_fd_sc_mcu7t5v0__nor4_4 A1 A2 A3 A4 ZN VDD VSS
.ends

* Black-box entry subcircuit for gf180mcu_fd_sc_mcu7t5v0__oai211_4 abstract view
.subckt gf180mcu_fd_sc_mcu7t5v0__oai211_4 A1 A2 B C ZN VDD VSS
.ends

* Black-box entry subcircuit for gf180mcu_fd_sc_mcu7t5v0__oai21_4 abstract view
.subckt gf180mcu_fd_sc_mcu7t5v0__oai21_4 A1 A2 B ZN VDD VSS
.ends

* Black-box entry subcircuit for gf180mcu_fd_sc_mcu7t5v0__or4_2 abstract view
.subckt gf180mcu_fd_sc_mcu7t5v0__or4_2 A1 A2 A3 A4 Z VDD VSS
.ends

* Black-box entry subcircuit for gf180mcu_fd_sc_mcu7t5v0__and4_2 abstract view
.subckt gf180mcu_fd_sc_mcu7t5v0__and4_2 A1 A2 A3 A4 Z VDD VSS
.ends

* Black-box entry subcircuit for gf180mcu_fd_sc_mcu7t5v0__dlyd_1 abstract view
.subckt gf180mcu_fd_sc_mcu7t5v0__dlyd_1 I Z VDD VSS
.ends

* Black-box entry subcircuit for gf180mcu_fd_sc_mcu7t5v0__oai31_2 abstract view
.subckt gf180mcu_fd_sc_mcu7t5v0__oai31_2 A1 A2 A3 B ZN VDD VSS
.ends

* Black-box entry subcircuit for gf180mcu_fd_sc_mcu7t5v0__tieh abstract view
.subckt gf180mcu_fd_sc_mcu7t5v0__tieh Z VDD VSS
.ends

* Black-box entry subcircuit for gf180mcu_fd_sc_mcu7t5v0__dlyc_1 abstract view
.subckt gf180mcu_fd_sc_mcu7t5v0__dlyc_1 I Z VDD VSS
.ends

* Black-box entry subcircuit for gf180mcu_fd_sc_mcu7t5v0__oai211_2 abstract view
.subckt gf180mcu_fd_sc_mcu7t5v0__oai211_2 A1 A2 B C ZN VDD VSS
.ends

* Black-box entry subcircuit for gf180mcu_fd_sc_mcu7t5v0__buf_2 abstract view
.subckt gf180mcu_fd_sc_mcu7t5v0__buf_2 I Z VDD VSS
.ends

* Black-box entry subcircuit for gf180mcu_fd_sc_mcu7t5v0__clkbuf_3 abstract view
.subckt gf180mcu_fd_sc_mcu7t5v0__clkbuf_3 I Z VDD VSS
.ends

* Black-box entry subcircuit for gf180mcu_fd_sc_mcu7t5v0__tiel abstract view
.subckt gf180mcu_fd_sc_mcu7t5v0__tiel ZN VDD VSS
.ends

* Black-box entry subcircuit for gf180mcu_fd_sc_mcu7t5v0__oai32_2 abstract view
.subckt gf180mcu_fd_sc_mcu7t5v0__oai32_2 A1 A2 A3 B1 B2 ZN VDD VSS
.ends

* Black-box entry subcircuit for gf180mcu_fd_sc_mcu7t5v0__oai221_4 abstract view
.subckt gf180mcu_fd_sc_mcu7t5v0__oai221_4 A1 A2 B1 B2 C ZN VDD VSS
.ends

* Black-box entry subcircuit for gf180mcu_fd_sc_mcu7t5v0__oai22_2 abstract view
.subckt gf180mcu_fd_sc_mcu7t5v0__oai22_2 A1 A2 B1 B2 ZN VDD VSS
.ends

* Black-box entry subcircuit for gf180mcu_fd_sc_mcu7t5v0__aoi221_2 abstract view
.subckt gf180mcu_fd_sc_mcu7t5v0__aoi221_2 A1 A2 B1 B2 C ZN VDD VSS
.ends

* Black-box entry subcircuit for gf180mcu_fd_sc_mcu7t5v0__nand4_2 abstract view
.subckt gf180mcu_fd_sc_mcu7t5v0__nand4_2 A1 A2 A3 A4 ZN VDD VSS
.ends

.subckt DSP48 io_in[0] io_in[10] io_in[11] io_in[12] io_in[13] io_in[14] io_in[15]
+ io_in[16] io_in[17] io_in[18] io_in[19] io_in[1] io_in[20] io_in[21] io_in[22] io_in[23]
+ io_in[24] io_in[25] io_in[26] io_in[27] io_in[28] io_in[29] io_in[2] io_in[30] io_in[31]
+ io_in[32] io_in[33] io_in[34] io_in[35] io_in[36] io_in[37] io_in[3] io_in[4] io_in[5]
+ io_in[6] io_in[7] io_in[8] io_in[9] io_oeb[0] io_oeb[10] io_oeb[11] io_oeb[12] io_oeb[13]
+ io_oeb[14] io_oeb[15] io_oeb[16] io_oeb[17] io_oeb[18] io_oeb[19] io_oeb[1] io_oeb[20]
+ io_oeb[21] io_oeb[22] io_oeb[23] io_oeb[24] io_oeb[25] io_oeb[26] io_oeb[27] io_oeb[28]
+ io_oeb[29] io_oeb[2] io_oeb[30] io_oeb[31] io_oeb[32] io_oeb[33] io_oeb[34] io_oeb[35]
+ io_oeb[36] io_oeb[37] io_oeb[3] io_oeb[4] io_oeb[5] io_oeb[6] io_oeb[7] io_oeb[8]
+ io_oeb[9] io_out[0] io_out[10] io_out[11] io_out[12] io_out[13] io_out[14] io_out[15]
+ io_out[16] io_out[17] io_out[18] io_out[19] io_out[1] io_out[20] io_out[21] io_out[22]
+ io_out[23] io_out[24] io_out[25] io_out[26] io_out[27] io_out[28] io_out[29] io_out[2]
+ io_out[30] io_out[31] io_out[32] io_out[33] io_out[34] io_out[35] io_out[36] io_out[37]
+ io_out[3] io_out[4] io_out[5] io_out[6] io_out[7] io_out[8] io_out[9] la_data_in[0]
+ la_data_in[10] la_data_in[11] la_data_in[12] la_data_in[13] la_data_in[14] la_data_in[15]
+ la_data_in[16] la_data_in[17] la_data_in[18] la_data_in[19] la_data_in[1] la_data_in[20]
+ la_data_in[21] la_data_in[22] la_data_in[23] la_data_in[24] la_data_in[25] la_data_in[26]
+ la_data_in[27] la_data_in[28] la_data_in[29] la_data_in[2] la_data_in[30] la_data_in[31]
+ la_data_in[32] la_data_in[33] la_data_in[34] la_data_in[35] la_data_in[36] la_data_in[37]
+ la_data_in[38] la_data_in[39] la_data_in[3] la_data_in[40] la_data_in[41] la_data_in[42]
+ la_data_in[43] la_data_in[44] la_data_in[45] la_data_in[46] la_data_in[47] la_data_in[48]
+ la_data_in[49] la_data_in[4] la_data_in[50] la_data_in[51] la_data_in[52] la_data_in[53]
+ la_data_in[54] la_data_in[55] la_data_in[56] la_data_in[57] la_data_in[58] la_data_in[59]
+ la_data_in[5] la_data_in[60] la_data_in[61] la_data_in[62] la_data_in[63] la_data_in[6]
+ la_data_in[7] la_data_in[8] la_data_in[9] user_clock2 vdd vss wb_ACK wb_ADR[0] wb_ADR[10]
+ wb_ADR[11] wb_ADR[12] wb_ADR[13] wb_ADR[14] wb_ADR[15] wb_ADR[16] wb_ADR[17] wb_ADR[18]
+ wb_ADR[19] wb_ADR[1] wb_ADR[20] wb_ADR[21] wb_ADR[22] wb_ADR[23] wb_ADR[24] wb_ADR[25]
+ wb_ADR[26] wb_ADR[27] wb_ADR[28] wb_ADR[29] wb_ADR[2] wb_ADR[30] wb_ADR[31] wb_ADR[3]
+ wb_ADR[4] wb_ADR[5] wb_ADR[6] wb_ADR[7] wb_ADR[8] wb_ADR[9] wb_CYC wb_DAT_MISO[0]
+ wb_DAT_MISO[10] wb_DAT_MISO[11] wb_DAT_MISO[12] wb_DAT_MISO[13] wb_DAT_MISO[14]
+ wb_DAT_MISO[15] wb_DAT_MISO[16] wb_DAT_MISO[17] wb_DAT_MISO[18] wb_DAT_MISO[19]
+ wb_DAT_MISO[1] wb_DAT_MISO[20] wb_DAT_MISO[21] wb_DAT_MISO[22] wb_DAT_MISO[23] wb_DAT_MISO[24]
+ wb_DAT_MISO[25] wb_DAT_MISO[26] wb_DAT_MISO[27] wb_DAT_MISO[28] wb_DAT_MISO[29]
+ wb_DAT_MISO[2] wb_DAT_MISO[30] wb_DAT_MISO[31] wb_DAT_MISO[3] wb_DAT_MISO[4] wb_DAT_MISO[5]
+ wb_DAT_MISO[6] wb_DAT_MISO[7] wb_DAT_MISO[8] wb_DAT_MISO[9] wb_DAT_MOSI[0] wb_DAT_MOSI[10]
+ wb_DAT_MOSI[11] wb_DAT_MOSI[12] wb_DAT_MOSI[13] wb_DAT_MOSI[14] wb_DAT_MOSI[15]
+ wb_DAT_MOSI[16] wb_DAT_MOSI[17] wb_DAT_MOSI[18] wb_DAT_MOSI[19] wb_DAT_MOSI[1] wb_DAT_MOSI[20]
+ wb_DAT_MOSI[21] wb_DAT_MOSI[22] wb_DAT_MOSI[23] wb_DAT_MOSI[24] wb_DAT_MOSI[25]
+ wb_DAT_MOSI[26] wb_DAT_MOSI[27] wb_DAT_MOSI[28] wb_DAT_MOSI[29] wb_DAT_MOSI[2] wb_DAT_MOSI[30]
+ wb_DAT_MOSI[31] wb_DAT_MOSI[3] wb_DAT_MOSI[4] wb_DAT_MOSI[5] wb_DAT_MOSI[6] wb_DAT_MOSI[7]
+ wb_DAT_MOSI[8] wb_DAT_MOSI[9] wb_SEL wb_STB wb_WE wb_clk_i wb_rst_i
XFILLER_41_1205 vdd vss gf180mcu_fd_sc_mcu7t5v0__fill_2
XFILLER_95_851 vdd vss gf180mcu_fd_sc_mcu7t5v0__fill_1
XFILLER_67_553 vdd vss gf180mcu_fd_sc_mcu7t5v0__fill_1
XFILLER_27_406 vdd vss gf180mcu_fd_sc_mcu7t5v0__fill_2
XFILLER_67_586 vdd vss gf180mcu_fd_sc_mcu7t5v0__fill_1
XFILLER_27_428 vdd vss gf180mcu_fd_sc_mcu7t5v0__fillcap_16
XFILLER_54_214 vdd vss gf180mcu_fd_sc_mcu7t5v0__fill_2
XFILLER_82_534 vdd vss gf180mcu_fd_sc_mcu7t5v0__fill_1
XFILLER_70_707 vdd vss gf180mcu_fd_sc_mcu7t5v0__fill_2
X_6914_ _2744_ _2745_ _2746_ vdd vss gf180mcu_fd_sc_mcu7t5v0__nor2_2
XFILLER_23_601 vdd vss gf180mcu_fd_sc_mcu7t5v0__fill_2
XANTENNA__7531__CLK clknet_3_6__leaf_wb_clk_i vdd vss gf180mcu_fd_sc_mcu7t5v0__antenna
XFILLER_39_1123 vdd vss gf180mcu_fd_sc_mcu7t5v0__fill_1
XFILLER_51_910 vdd vss gf180mcu_fd_sc_mcu7t5v0__fill_1
XFILLER_74_1003 vdd vss gf180mcu_fd_sc_mcu7t5v0__fillcap_4
XANTENNA__4640__A1 _0451_ vdd vss gf180mcu_fd_sc_mcu7t5v0__antenna
XFILLER_51_921 vdd vss gf180mcu_fd_sc_mcu7t5v0__fill_2
XFILLER_74_1025 vdd vss gf180mcu_fd_sc_mcu7t5v0__fill_1
XANTENNA_input108_I wb_DAT_MOSI[18] vdd vss gf180mcu_fd_sc_mcu7t5v0__antenna
XFILLER_1_1490 vdd vss gf180mcu_fd_sc_mcu7t5v0__fill_1
X_6845_ _2579_ _2580_ _2577_ _2678_ vdd vss gf180mcu_fd_sc_mcu7t5v0__oai21_2
XFILLER_50_431 vdd vss gf180mcu_fd_sc_mcu7t5v0__fill_2
XFILLER_51_954 vdd vss gf180mcu_fd_sc_mcu7t5v0__fillcap_4
XFILLER_52_18 vdd vss gf180mcu_fd_sc_mcu7t5v0__fill_1
XFILLER_74_1047 vdd vss gf180mcu_fd_sc_mcu7t5v0__fill_2
XFILLER_62_291 vdd vss gf180mcu_fd_sc_mcu7t5v0__fillcap_4
XFILLER_22_144 vdd vss gf180mcu_fd_sc_mcu7t5v0__fill_2
X_6776_ _2532_ _2535_ _2610_ vdd vss gf180mcu_fd_sc_mcu7t5v0__nor2_2
XFILLER_52_1312 vdd vss gf180mcu_fd_sc_mcu7t5v0__fill_1
XFILLER_108_1560 vdd vss gf180mcu_fd_sc_mcu7t5v0__fillcap_16
XANTENNA_clkbuf_3_3__f_wb_clk_i_I clknet_0_wb_clk_i vdd vss gf180mcu_fd_sc_mcu7t5v0__antenna
X_3988_ _3499_ _3506_ _0129_ vdd vss gf180mcu_fd_sc_mcu7t5v0__and2_2
XFILLER_17_1454 vdd vss gf180mcu_fd_sc_mcu7t5v0__fillcap_16
XFILLER_13_1307 vdd vss gf180mcu_fd_sc_mcu7t5v0__fill_2
XFILLER_22_199 vdd vss gf180mcu_fd_sc_mcu7t5v0__fill_2
X_5727_ _1567_ _1570_ _1571_ vdd vss gf180mcu_fd_sc_mcu7t5v0__xnor2_2
XFILLER_13_1318 vdd vss gf180mcu_fd_sc_mcu7t5v0__fill_2
XFILLER_104_1457 vdd vss gf180mcu_fd_sc_mcu7t5v0__fillcap_64
XANTENNA__6145__A1 _1352_ vdd vss gf180mcu_fd_sc_mcu7t5v0__antenna
X_5658_ _1404_ _1499_ _1502_ _1503_ vdd vss gf180mcu_fd_sc_mcu7t5v0__xor3_2
XFILLER_87_1419 vdd vss gf180mcu_fd_sc_mcu7t5v0__fill_1
XANTENNA_input73_I wb_ADR[16] vdd vss gf180mcu_fd_sc_mcu7t5v0__antenna
XFILLER_11_1042 vdd vss gf180mcu_fd_sc_mcu7t5v0__fillcap_8
X_4609_ _3304_ _0466_ vdd vss gf180mcu_fd_sc_mcu7t5v0__clkbuf_2
XFILLER_102_1170 vdd vss gf180mcu_fd_sc_mcu7t5v0__fill_1
XFILLER_123_208 vdd vss gf180mcu_fd_sc_mcu7t5v0__fillcap_4
XFILLER_11_1064 vdd vss gf180mcu_fd_sc_mcu7t5v0__fill_1
X_5589_ _1344_ _1433_ _1357_ _1434_ vdd vss gf180mcu_fd_sc_mcu7t5v0__oai21_2
XFILLER_117_783 vdd vss gf180mcu_fd_sc_mcu7t5v0__fillcap_64
X_7328_ _0362_ _3461_ _3114_ _3153_ vdd vss gf180mcu_fd_sc_mcu7t5v0__nand3_2
XFILLER_117_66 vdd vss gf180mcu_fd_sc_mcu7t5v0__fillcap_4
XFILLER_89_144 vdd vss gf180mcu_fd_sc_mcu7t5v0__fillcap_64
XANTENNA__6448__A2 _2284_ vdd vss gf180mcu_fd_sc_mcu7t5v0__antenna
XFILLER_78_818 vdd vss gf180mcu_fd_sc_mcu7t5v0__fillcap_16
XFILLER_105_989 vdd vss gf180mcu_fd_sc_mcu7t5v0__fillcap_4
X_7259_ _3084_ _3085_ _3086_ vdd vss gf180mcu_fd_sc_mcu7t5v0__and2_2
XFILLER_137_1277 vdd vss gf180mcu_fd_sc_mcu7t5v0__fill_1
XFILLER_58_531 vdd vss gf180mcu_fd_sc_mcu7t5v0__fill_1
XFILLER_115_1564 vdd vss gf180mcu_fd_sc_mcu7t5v0__fillcap_16
XFILLER_19_918 vdd vss gf180mcu_fd_sc_mcu7t5v0__fillcap_4
XFILLER_46_704 vdd vss gf180mcu_fd_sc_mcu7t5v0__fill_1
XFILLER_58_564 vdd vss gf180mcu_fd_sc_mcu7t5v0__fill_1
XTAP_3202 vdd vss gf180mcu_fd_sc_mcu7t5v0__filltie
XFILLER_58_575 vdd vss gf180mcu_fd_sc_mcu7t5v0__fillcap_8
XTAP_3213 vdd vss gf180mcu_fd_sc_mcu7t5v0__filltie
XFILLER_58_586 vdd vss gf180mcu_fd_sc_mcu7t5v0__fillcap_8
XFILLER_85_361 vdd vss gf180mcu_fd_sc_mcu7t5v0__fill_2
XTAP_3224 vdd vss gf180mcu_fd_sc_mcu7t5v0__filltie
XFILLER_85_372 vdd vss gf180mcu_fd_sc_mcu7t5v0__fill_2
XTAP_3235 vdd vss gf180mcu_fd_sc_mcu7t5v0__filltie
XFILLER_58_597 vdd vss gf180mcu_fd_sc_mcu7t5v0__fillcap_4
XTAP_2501 vdd vss gf180mcu_fd_sc_mcu7t5v0__filltie
XFILLER_6_1390 vdd vss gf180mcu_fd_sc_mcu7t5v0__fillcap_16
XTAP_3246 vdd vss gf180mcu_fd_sc_mcu7t5v0__filltie
XTAP_3257 vdd vss gf180mcu_fd_sc_mcu7t5v0__filltie
XTAP_2512 vdd vss gf180mcu_fd_sc_mcu7t5v0__filltie
XTAP_3268 vdd vss gf180mcu_fd_sc_mcu7t5v0__filltie
XTAP_2523 vdd vss gf180mcu_fd_sc_mcu7t5v0__filltie
XTAP_3279 vdd vss gf180mcu_fd_sc_mcu7t5v0__filltie
XTAP_2534 vdd vss gf180mcu_fd_sc_mcu7t5v0__filltie
XFILLER_73_567 vdd vss gf180mcu_fd_sc_mcu7t5v0__fill_1
XTAP_2545 vdd vss gf180mcu_fd_sc_mcu7t5v0__filltie
XTAP_1800 vdd vss gf180mcu_fd_sc_mcu7t5v0__filltie
XTAP_2556 vdd vss gf180mcu_fd_sc_mcu7t5v0__filltie
XTAP_1811 vdd vss gf180mcu_fd_sc_mcu7t5v0__filltie
XFILLER_54_770 vdd vss gf180mcu_fd_sc_mcu7t5v0__fill_2
XTAP_1822 vdd vss gf180mcu_fd_sc_mcu7t5v0__filltie
XTAP_2567 vdd vss gf180mcu_fd_sc_mcu7t5v0__filltie
XFILLER_26_472 vdd vss gf180mcu_fd_sc_mcu7t5v0__fill_2
XTAP_2578 vdd vss gf180mcu_fd_sc_mcu7t5v0__filltie
XFILLER_14_623 vdd vss gf180mcu_fd_sc_mcu7t5v0__fillcap_4
XTAP_1833 vdd vss gf180mcu_fd_sc_mcu7t5v0__filltie
XTAP_2589 vdd vss gf180mcu_fd_sc_mcu7t5v0__filltie
XTAP_1844 vdd vss gf180mcu_fd_sc_mcu7t5v0__filltie
XTAP_1855 vdd vss gf180mcu_fd_sc_mcu7t5v0__filltie
XFILLER_13_122 vdd vss gf180mcu_fd_sc_mcu7t5v0__fillcap_4
XTAP_1866 vdd vss gf180mcu_fd_sc_mcu7t5v0__filltie
XFILLER_144_1237 vdd vss gf180mcu_fd_sc_mcu7t5v0__fillcap_8
XFILLER_13_144 vdd vss gf180mcu_fd_sc_mcu7t5v0__fill_1
XFILLER_42_976 vdd vss gf180mcu_fd_sc_mcu7t5v0__fill_2
XTAP_1877 vdd vss gf180mcu_fd_sc_mcu7t5v0__filltie
XTAP_1888 vdd vss gf180mcu_fd_sc_mcu7t5v0__filltie
XFILLER_14_689 vdd vss gf180mcu_fd_sc_mcu7t5v0__fill_2
XTAP_1899 vdd vss gf180mcu_fd_sc_mcu7t5v0__filltie
XFILLER_144_1259 vdd vss gf180mcu_fd_sc_mcu7t5v0__fill_1
XFILLER_13_166 vdd vss gf180mcu_fd_sc_mcu7t5v0__fill_2
XFILLER_41_475 vdd vss gf180mcu_fd_sc_mcu7t5v0__fill_2
XFILLER_9_126 vdd vss gf180mcu_fd_sc_mcu7t5v0__fillcap_4
XFILLER_9_137 vdd vss gf180mcu_fd_sc_mcu7t5v0__fill_2
XFILLER_42_95 vdd vss gf180mcu_fd_sc_mcu7t5v0__fill_2
XANTENNA__6136__A1 _1953_ vdd vss gf180mcu_fd_sc_mcu7t5v0__antenna
XFILLER_115_709 vdd vss gf180mcu_fd_sc_mcu7t5v0__fill_1
XANTENNA__6687__A2 _2108_ vdd vss gf180mcu_fd_sc_mcu7t5v0__antenna
XFILLER_5_354 vdd vss gf180mcu_fd_sc_mcu7t5v0__fill_1
XANTENNA__4698__A1 _0551_ vdd vss gf180mcu_fd_sc_mcu7t5v0__antenna
XFILLER_5_387 vdd vss gf180mcu_fd_sc_mcu7t5v0__fill_2
XFILLER_69_807 vdd vss gf180mcu_fd_sc_mcu7t5v0__fill_2
XFILLER_9_1419 vdd vss gf180mcu_fd_sc_mcu7t5v0__fill_1
XFILLER_42_1525 vdd vss gf180mcu_fd_sc_mcu7t5v0__fill_1
XFILLER_77_840 vdd vss gf180mcu_fd_sc_mcu7t5v0__fill_2
XFILLER_49_542 vdd vss gf180mcu_fd_sc_mcu7t5v0__fill_1
XFILLER_77_851 vdd vss gf180mcu_fd_sc_mcu7t5v0__fill_1
XFILLER_67_70 vdd vss gf180mcu_fd_sc_mcu7t5v0__fill_1
XFILLER_37_704 vdd vss gf180mcu_fd_sc_mcu7t5v0__fill_2
XFILLER_76_350 vdd vss gf180mcu_fd_sc_mcu7t5v0__fillcap_16
XANTENNA__7554__CLK clknet_3_6__leaf_wb_clk_i vdd vss gf180mcu_fd_sc_mcu7t5v0__antenna
XFILLER_64_501 vdd vss gf180mcu_fd_sc_mcu7t5v0__fill_2
XFILLER_64_512 vdd vss gf180mcu_fd_sc_mcu7t5v0__fillcap_4
XFILLER_64_534 vdd vss gf180mcu_fd_sc_mcu7t5v0__fillcap_8
XANTENNA__3869__I _3408_ vdd vss gf180mcu_fd_sc_mcu7t5v0__antenna
XFILLER_64_545 vdd vss gf180mcu_fd_sc_mcu7t5v0__fill_2
XFILLER_36_247 vdd vss gf180mcu_fd_sc_mcu7t5v0__fill_1
XFILLER_18_962 vdd vss gf180mcu_fd_sc_mcu7t5v0__fill_1
XFILLER_52_707 vdd vss gf180mcu_fd_sc_mcu7t5v0__fill_2
XFILLER_52_729 vdd vss gf180mcu_fd_sc_mcu7t5v0__fill_2
X_4960_ _0810_ _0765_ _0811_ vdd vss gf180mcu_fd_sc_mcu7t5v0__nand2_2
XANTENNA__4622__A1 _0477_ vdd vss gf180mcu_fd_sc_mcu7t5v0__antenna
XFILLER_33_921 vdd vss gf180mcu_fd_sc_mcu7t5v0__fill_2
X_3911_ _3445_ _3446_ net170 vdd vss gf180mcu_fd_sc_mcu7t5v0__nand2_2
X_4891_ _0674_ _0685_ _0743_ vdd vss gf180mcu_fd_sc_mcu7t5v0__or2_2
XFILLER_33_976 vdd vss gf180mcu_fd_sc_mcu7t5v0__fill_2
XFILLER_71_1209 vdd vss gf180mcu_fd_sc_mcu7t5v0__fillcap_64
X_6630_ _2310_ _2464_ _2465_ vdd vss gf180mcu_fd_sc_mcu7t5v0__and2_2
XFILLER_60_762 vdd vss gf180mcu_fd_sc_mcu7t5v0__fill_2
XANTENNA__6375__A1 dspArea_regP\[24\] vdd vss gf180mcu_fd_sc_mcu7t5v0__antenna
X_3842_ _3384_ _3385_ vdd vss gf180mcu_fd_sc_mcu7t5v0__clkbuf_1
XFILLER_32_475 vdd vss gf180mcu_fd_sc_mcu7t5v0__fill_2
XFILLER_34_1031 vdd vss gf180mcu_fd_sc_mcu7t5v0__fillcap_4
XFILLER_80_2 vdd vss gf180mcu_fd_sc_mcu7t5v0__fillcap_16
X_6561_ _2377_ _2379_ _2396_ _2397_ vdd vss gf180mcu_fd_sc_mcu7t5v0__or3_2
X_3773_ _3323_ _3324_ vdd vss gf180mcu_fd_sc_mcu7t5v0__clkbuf_1
X_5512_ _1356_ _1357_ _1358_ vdd vss gf180mcu_fd_sc_mcu7t5v0__nand2_2
XFILLER_34_1097 vdd vss gf180mcu_fd_sc_mcu7t5v0__fill_2
X_6492_ _2214_ _2216_ _2329_ vdd vss gf180mcu_fd_sc_mcu7t5v0__nand2_2
XFILLER_121_1067 vdd vss gf180mcu_fd_sc_mcu7t5v0__fillcap_64
XFILLER_69_1138 vdd vss gf180mcu_fd_sc_mcu7t5v0__fill_2
X_5443_ _0893_ _0894_ _1289_ vdd vss gf180mcu_fd_sc_mcu7t5v0__nor2_2
XFILLER_105_208 vdd vss gf180mcu_fd_sc_mcu7t5v0__fillcap_4
XFILLER_103_1490 vdd vss gf180mcu_fd_sc_mcu7t5v0__fill_1
X_5374_ _1206_ _1220_ _1221_ vdd vss gf180mcu_fd_sc_mcu7t5v0__xnor2_2
XANTENNA__7025__B _2854_ vdd vss gf180mcu_fd_sc_mcu7t5v0__antenna
X_7113_ _2874_ _2870_ _2942_ vdd vss gf180mcu_fd_sc_mcu7t5v0__nand2_2
X_4325_ net123 _0219_ vdd vss gf180mcu_fd_sc_mcu7t5v0__clkinv_1
XFILLER_101_425 vdd vss gf180mcu_fd_sc_mcu7t5v0__fill_1
X_7044_ _1759_ _3473_ _2874_ vdd vss gf180mcu_fd_sc_mcu7t5v0__and2_2
XFILLER_59_339 vdd vss gf180mcu_fd_sc_mcu7t5v0__fillcap_16
X_4256_ _0163_ _0164_ vdd vss gf180mcu_fd_sc_mcu7t5v0__clkbuf_1
XFILLER_47_29 vdd vss gf180mcu_fd_sc_mcu7t5v0__fillcap_8
XFILLER_67_350 vdd vss gf180mcu_fd_sc_mcu7t5v0__fill_2
X_4187_ dacArea_dac_cnt_5\[4\] net39 _3664_ _3665_ vdd vss gf180mcu_fd_sc_mcu7t5v0__xor3_2
XFILLER_28_715 vdd vss gf180mcu_fd_sc_mcu7t5v0__fill_2
XFILLER_67_361 vdd vss gf180mcu_fd_sc_mcu7t5v0__fill_2
XFILLER_68_884 vdd vss gf180mcu_fd_sc_mcu7t5v0__fill_2
XFILLER_80_1095 vdd vss gf180mcu_fd_sc_mcu7t5v0__fillcap_4
XFILLER_67_372 vdd vss gf180mcu_fd_sc_mcu7t5v0__fillcap_4
XFILLER_83_821 vdd vss gf180mcu_fd_sc_mcu7t5v0__fill_2
XFILLER_28_737 vdd vss gf180mcu_fd_sc_mcu7t5v0__fillcap_8
XANTENNA__3779__I _3328_ vdd vss gf180mcu_fd_sc_mcu7t5v0__antenna
XFILLER_83_854 vdd vss gf180mcu_fd_sc_mcu7t5v0__fillcap_64
XFILLER_27_247 vdd vss gf180mcu_fd_sc_mcu7t5v0__fill_1
XFILLER_43_707 vdd vss gf180mcu_fd_sc_mcu7t5v0__fill_2
XFILLER_110_1450 vdd vss gf180mcu_fd_sc_mcu7t5v0__fillcap_4
XFILLER_3_1574 vdd vss gf180mcu_fd_sc_mcu7t5v0__fill_2
XFILLER_27_269 vdd vss gf180mcu_fd_sc_mcu7t5v0__fillcap_4
XFILLER_58_1521 vdd vss gf180mcu_fd_sc_mcu7t5v0__fillcap_4
XTAP_1107 vdd vss gf180mcu_fd_sc_mcu7t5v0__filltie
XFILLER_42_206 vdd vss gf180mcu_fd_sc_mcu7t5v0__fill_2
XFILLER_43_729 vdd vss gf180mcu_fd_sc_mcu7t5v0__fill_2
XFILLER_24_921 vdd vss gf180mcu_fd_sc_mcu7t5v0__fill_2
XTAP_1118 vdd vss gf180mcu_fd_sc_mcu7t5v0__filltie
XTAP_1129 vdd vss gf180mcu_fd_sc_mcu7t5v0__filltie
XFILLER_70_548 vdd vss gf180mcu_fd_sc_mcu7t5v0__fill_2
XANTENNA__3967__A3 _3489_ vdd vss gf180mcu_fd_sc_mcu7t5v0__antenna
XFILLER_23_431 vdd vss gf180mcu_fd_sc_mcu7t5v0__fillcap_4
XFILLER_51_740 vdd vss gf180mcu_fd_sc_mcu7t5v0__fill_2
XFILLER_58_1576 vdd vss gf180mcu_fd_sc_mcu7t5v0__fillcap_4
XFILLER_35_291 vdd vss gf180mcu_fd_sc_mcu7t5v0__fill_2
XFILLER_23_442 vdd vss gf180mcu_fd_sc_mcu7t5v0__fill_2
XFILLER_51_762 vdd vss gf180mcu_fd_sc_mcu7t5v0__fill_2
XFILLER_50_250 vdd vss gf180mcu_fd_sc_mcu7t5v0__fill_1
X_6828_ _0333_ _2493_ _2661_ vdd vss gf180mcu_fd_sc_mcu7t5v0__and2_2
XANTENNA__6366__A1 _2193_ vdd vss gf180mcu_fd_sc_mcu7t5v0__antenna
XFILLER_50_261 vdd vss gf180mcu_fd_sc_mcu7t5v0__fillcap_8
XFILLER_10_103 vdd vss gf180mcu_fd_sc_mcu7t5v0__fill_2
XANTENNA__3719__A3 _3272_ vdd vss gf180mcu_fd_sc_mcu7t5v0__antenna
X_6759_ _2591_ _2592_ _2593_ vdd vss gf180mcu_fd_sc_mcu7t5v0__xnor2_2
XFILLER_17_1273 vdd vss gf180mcu_fd_sc_mcu7t5v0__fillcap_4
XFILLER_52_1153 vdd vss gf180mcu_fd_sc_mcu7t5v0__fillcap_4
XFILLER_52_1164 vdd vss gf180mcu_fd_sc_mcu7t5v0__fillcap_4
XANTENNA__4403__I _0278_ vdd vss gf180mcu_fd_sc_mcu7t5v0__antenna
XFILLER_17_1295 vdd vss gf180mcu_fd_sc_mcu7t5v0__fill_2
XFILLER_10_169 vdd vss gf180mcu_fd_sc_mcu7t5v0__fill_1
XANTENNA__6118__A1 _0346_ vdd vss gf180mcu_fd_sc_mcu7t5v0__antenna
XFILLER_6_129 vdd vss gf180mcu_fd_sc_mcu7t5v0__fill_2
XFILLER_88_69 vdd vss gf180mcu_fd_sc_mcu7t5v0__fillcap_8
XFILLER_2_368 vdd vss gf180mcu_fd_sc_mcu7t5v0__fill_2
XANTENNA__7577__CLK clknet_3_5__leaf_wb_clk_i vdd vss gf180mcu_fd_sc_mcu7t5v0__antenna
XFILLER_8_1430 vdd vss gf180mcu_fd_sc_mcu7t5v0__fill_1
XFILLER_8_1452 vdd vss gf180mcu_fd_sc_mcu7t5v0__fill_2
XFILLER_59_851 vdd vss gf180mcu_fd_sc_mcu7t5v0__fill_1
XFILLER_24_1244 vdd vss gf180mcu_fd_sc_mcu7t5v0__fillcap_64
XFILLER_98_1312 vdd vss gf180mcu_fd_sc_mcu7t5v0__fill_1
XTAP_3010 vdd vss gf180mcu_fd_sc_mcu7t5v0__filltie
XTAP_3021 vdd vss gf180mcu_fd_sc_mcu7t5v0__filltie
XFILLER_46_534 vdd vss gf180mcu_fd_sc_mcu7t5v0__fill_1
XTAP_3032 vdd vss gf180mcu_fd_sc_mcu7t5v0__filltie
XTAP_3043 vdd vss gf180mcu_fd_sc_mcu7t5v0__filltie
XFILLER_18_247 vdd vss gf180mcu_fd_sc_mcu7t5v0__fill_1
XFILLER_37_73 vdd vss gf180mcu_fd_sc_mcu7t5v0__fillcap_8
XFILLER_41_1580 vdd vss gf180mcu_fd_sc_mcu7t5v0__fill_1
XFILLER_74_865 vdd vss gf180mcu_fd_sc_mcu7t5v0__fill_2
XTAP_3054 vdd vss gf180mcu_fd_sc_mcu7t5v0__filltie
XTAP_2320 vdd vss gf180mcu_fd_sc_mcu7t5v0__filltie
XTAP_3065 vdd vss gf180mcu_fd_sc_mcu7t5v0__filltie
XTAP_3076 vdd vss gf180mcu_fd_sc_mcu7t5v0__filltie
XTAP_2331 vdd vss gf180mcu_fd_sc_mcu7t5v0__filltie
XFILLER_73_375 vdd vss gf180mcu_fd_sc_mcu7t5v0__fillcap_16
XTAP_3087 vdd vss gf180mcu_fd_sc_mcu7t5v0__filltie
XTAP_2342 vdd vss gf180mcu_fd_sc_mcu7t5v0__filltie
XTAP_3098 vdd vss gf180mcu_fd_sc_mcu7t5v0__filltie
XTAP_2353 vdd vss gf180mcu_fd_sc_mcu7t5v0__filltie
XANTENNA__4455__I1 net123 vdd vss gf180mcu_fd_sc_mcu7t5v0__antenna
XTAP_2364 vdd vss gf180mcu_fd_sc_mcu7t5v0__filltie
XTAP_2375 vdd vss gf180mcu_fd_sc_mcu7t5v0__filltie
XFILLER_57_1031 vdd vss gf180mcu_fd_sc_mcu7t5v0__fillcap_16
XTAP_1630 vdd vss gf180mcu_fd_sc_mcu7t5v0__filltie
XFILLER_61_548 vdd vss gf180mcu_fd_sc_mcu7t5v0__fill_2
XTAP_1641 vdd vss gf180mcu_fd_sc_mcu7t5v0__filltie
XTAP_2386 vdd vss gf180mcu_fd_sc_mcu7t5v0__filltie
XFILLER_18_1004 vdd vss gf180mcu_fd_sc_mcu7t5v0__fillcap_4
XFILLER_14_431 vdd vss gf180mcu_fd_sc_mcu7t5v0__fill_2
XTAP_2397 vdd vss gf180mcu_fd_sc_mcu7t5v0__filltie
XFILLER_42_751 vdd vss gf180mcu_fd_sc_mcu7t5v0__fill_2
XFILLER_57_1064 vdd vss gf180mcu_fd_sc_mcu7t5v0__fill_1
XTAP_1652 vdd vss gf180mcu_fd_sc_mcu7t5v0__filltie
XFILLER_30_902 vdd vss gf180mcu_fd_sc_mcu7t5v0__fillcap_16
XTAP_1663 vdd vss gf180mcu_fd_sc_mcu7t5v0__filltie
XFILLER_57_1075 vdd vss gf180mcu_fd_sc_mcu7t5v0__fill_1
XTAP_1674 vdd vss gf180mcu_fd_sc_mcu7t5v0__filltie
XANTENNA__6357__A1 _1348_ vdd vss gf180mcu_fd_sc_mcu7t5v0__antenna
XTAP_1685 vdd vss gf180mcu_fd_sc_mcu7t5v0__filltie
XTAP_1696 vdd vss gf180mcu_fd_sc_mcu7t5v0__filltie
XFILLER_30_957 vdd vss gf180mcu_fd_sc_mcu7t5v0__fill_1
XFILLER_35_1351 vdd vss gf180mcu_fd_sc_mcu7t5v0__fillcap_64
XFILLER_31_1237 vdd vss gf180mcu_fd_sc_mcu7t5v0__fillcap_32
XFILLER_10_670 vdd vss gf180mcu_fd_sc_mcu7t5v0__fillcap_4
XANTENNA__5580__A2 _3308_ vdd vss gf180mcu_fd_sc_mcu7t5v0__antenna
XFILLER_6_630 vdd vss gf180mcu_fd_sc_mcu7t5v0__fill_2
XFILLER_128_889 vdd vss gf180mcu_fd_sc_mcu7t5v0__fillcap_64
XFILLER_142_314 vdd vss gf180mcu_fd_sc_mcu7t5v0__fillcap_4
XFILLER_5_173 vdd vss gf180mcu_fd_sc_mcu7t5v0__fill_2
XFILLER_64_1024 vdd vss gf180mcu_fd_sc_mcu7t5v0__fill_2
XFILLER_9_1216 vdd vss gf180mcu_fd_sc_mcu7t5v0__fillcap_16
XFILLER_111_712 vdd vss gf180mcu_fd_sc_mcu7t5v0__fillcap_64
X_4110_ dacArea_dac_cnt_3\[4\] net21 _3603_ _3604_ vdd vss gf180mcu_fd_sc_mcu7t5v0__xor3_2
XFILLER_78_80 vdd vss gf180mcu_fd_sc_mcu7t5v0__fill_2
XFILLER_69_648 vdd vss gf180mcu_fd_sc_mcu7t5v0__fill_2
X_5090_ _0939_ _0940_ vdd vss gf180mcu_fd_sc_mcu7t5v0__clkinv_1
XANTENNA__5096__A1 _0942_ vdd vss gf180mcu_fd_sc_mcu7t5v0__antenna
XFILLER_96_456 vdd vss gf180mcu_fd_sc_mcu7t5v0__fillcap_4
X_4041_ _3548_ _3546_ _3549_ vdd vss gf180mcu_fd_sc_mcu7t5v0__nand2_2
XANTENNA__6832__A2 _3448_ vdd vss gf180mcu_fd_sc_mcu7t5v0__antenna
XANTENNA__4843__A1 _0694_ vdd vss gf180mcu_fd_sc_mcu7t5v0__antenna
XFILLER_65_843 vdd vss gf180mcu_fd_sc_mcu7t5v0__fill_2
XFILLER_65_854 vdd vss gf180mcu_fd_sc_mcu7t5v0__fillcap_4
XFILLER_92_673 vdd vss gf180mcu_fd_sc_mcu7t5v0__fill_1
XFILLER_25_729 vdd vss gf180mcu_fd_sc_mcu7t5v0__fill_2
XFILLER_37_589 vdd vss gf180mcu_fd_sc_mcu7t5v0__fill_2
XFILLER_24_206 vdd vss gf180mcu_fd_sc_mcu7t5v0__fill_1
XANTENNA__6596__A1 _2298_ vdd vss gf180mcu_fd_sc_mcu7t5v0__antenna
XANTENNA__5399__A2 dspArea_regA\[13\] vdd vss gf180mcu_fd_sc_mcu7t5v0__antenna
X_5992_ _1810_ _1811_ _1809_ _1833_ vdd vss gf180mcu_fd_sc_mcu7t5v0__nor3_2
XFILLER_80_835 vdd vss gf180mcu_fd_sc_mcu7t5v0__fill_1
XFILLER_52_537 vdd vss gf180mcu_fd_sc_mcu7t5v0__fill_2
XFILLER_64_397 vdd vss gf180mcu_fd_sc_mcu7t5v0__fill_2
XFILLER_80_846 vdd vss gf180mcu_fd_sc_mcu7t5v0__fillcap_4
XFILLER_17_280 vdd vss gf180mcu_fd_sc_mcu7t5v0__fillcap_4
X_4943_ _0730_ _0733_ _0794_ _0795_ vdd vss gf180mcu_fd_sc_mcu7t5v0__xnor3_2
XFILLER_75_1131 vdd vss gf180mcu_fd_sc_mcu7t5v0__fillcap_4
X_7662_ net194 net131 vdd vss gf180mcu_fd_sc_mcu7t5v0__clkbuf_1
XFILLER_32_250 vdd vss gf180mcu_fd_sc_mcu7t5v0__fillcap_4
XANTENNA__6348__A1 _2177_ vdd vss gf180mcu_fd_sc_mcu7t5v0__antenna
X_4874_ dspArea_regP\[9\] _0725_ _0726_ _0727_ vdd vss gf180mcu_fd_sc_mcu7t5v0__mux2_2
XFILLER_20_412 vdd vss gf180mcu_fd_sc_mcu7t5v0__fill_2
XFILLER_32_272 vdd vss gf180mcu_fd_sc_mcu7t5v0__fillcap_8
X_6613_ _2246_ _2250_ _2448_ _2240_ _2449_ vdd vss gf180mcu_fd_sc_mcu7t5v0__aoi211_2
XFILLER_60_592 vdd vss gf180mcu_fd_sc_mcu7t5v0__fill_2
X_3825_ _3369_ _3370_ vdd vss gf180mcu_fd_sc_mcu7t5v0__clkbuf_1
X_7593_ _0113_ clknet_3_3__leaf_wb_clk_i dspArea_regP\[36\] vdd vss gf180mcu_fd_sc_mcu7t5v0__dffq_1
XFILLER_20_445 vdd vss gf180mcu_fd_sc_mcu7t5v0__fillcap_8
X_6544_ _2302_ _2303_ _2308_ _2380_ vdd vss gf180mcu_fd_sc_mcu7t5v0__nor3_2