* NGSPICE file created from DSP48.ext - technology: gf180mcuC

* Black-box entry subcircuit for gf180mcu_fd_sc_mcu7t5v0__fill_1 abstract view
.subckt gf180mcu_fd_sc_mcu7t5v0__fill_1 VDD VSS
.ends

* Black-box entry subcircuit for gf180mcu_fd_sc_mcu7t5v0__antenna abstract view
.subckt gf180mcu_fd_sc_mcu7t5v0__antenna I VDD VSS
.ends

* Black-box entry subcircuit for gf180mcu_fd_sc_mcu7t5v0__fillcap_4 abstract view
.subckt gf180mcu_fd_sc_mcu7t5v0__fillcap_4 VDD VSS
.ends

* Black-box entry subcircuit for gf180mcu_fd_sc_mcu7t5v0__fillcap_16 abstract view
.subckt gf180mcu_fd_sc_mcu7t5v0__fillcap_16 VDD VSS
.ends

* Black-box entry subcircuit for gf180mcu_fd_sc_mcu7t5v0__fill_2 abstract view
.subckt gf180mcu_fd_sc_mcu7t5v0__fill_2 VDD VSS
.ends

* Black-box entry subcircuit for gf180mcu_fd_sc_mcu7t5v0__dffq_1 abstract view
.subckt gf180mcu_fd_sc_mcu7t5v0__dffq_1 D CLK Q VDD VSS
.ends

* Black-box entry subcircuit for gf180mcu_fd_sc_mcu7t5v0__fillcap_8 abstract view
.subckt gf180mcu_fd_sc_mcu7t5v0__fillcap_8 VDD VSS
.ends

* Black-box entry subcircuit for gf180mcu_fd_sc_mcu7t5v0__xor2_2 abstract view
.subckt gf180mcu_fd_sc_mcu7t5v0__xor2_2 A1 A2 Z VDD VSS
.ends

* Black-box entry subcircuit for gf180mcu_fd_sc_mcu7t5v0__mux2_2 abstract view
.subckt gf180mcu_fd_sc_mcu7t5v0__mux2_2 I0 I1 S Z VDD VSS
.ends

* Black-box entry subcircuit for gf180mcu_fd_sc_mcu7t5v0__and3_2 abstract view
.subckt gf180mcu_fd_sc_mcu7t5v0__and3_2 A1 A2 A3 Z VDD VSS
.ends

* Black-box entry subcircuit for gf180mcu_fd_sc_mcu7t5v0__fillcap_64 abstract view
.subckt gf180mcu_fd_sc_mcu7t5v0__fillcap_64 VDD VSS
.ends

* Black-box entry subcircuit for gf180mcu_fd_sc_mcu7t5v0__and2_2 abstract view
.subckt gf180mcu_fd_sc_mcu7t5v0__and2_2 A1 A2 Z VDD VSS
.ends

* Black-box entry subcircuit for gf180mcu_fd_sc_mcu7t5v0__clkinv_1 abstract view
.subckt gf180mcu_fd_sc_mcu7t5v0__clkinv_1 I ZN VDD VSS
.ends

* Black-box entry subcircuit for gf180mcu_fd_sc_mcu7t5v0__filltie abstract view
.subckt gf180mcu_fd_sc_mcu7t5v0__filltie VDD VSS
.ends

* Black-box entry subcircuit for gf180mcu_fd_sc_mcu7t5v0__nor2_2 abstract view
.subckt gf180mcu_fd_sc_mcu7t5v0__nor2_2 A1 A2 ZN VDD VSS
.ends

* Black-box entry subcircuit for gf180mcu_fd_sc_mcu7t5v0__fillcap_32 abstract view
.subckt gf180mcu_fd_sc_mcu7t5v0__fillcap_32 VDD VSS
.ends

* Black-box entry subcircuit for gf180mcu_fd_sc_mcu7t5v0__xnor3_2 abstract view
.subckt gf180mcu_fd_sc_mcu7t5v0__xnor3_2 A1 A2 A3 ZN VDD VSS
.ends

* Black-box entry subcircuit for gf180mcu_fd_sc_mcu7t5v0__xnor2_2 abstract view
.subckt gf180mcu_fd_sc_mcu7t5v0__xnor2_2 A1 A2 ZN VDD VSS
.ends

* Black-box entry subcircuit for gf180mcu_fd_sc_mcu7t5v0__nand2_2 abstract view
.subckt gf180mcu_fd_sc_mcu7t5v0__nand2_2 A1 A2 ZN VDD VSS
.ends

* Black-box entry subcircuit for gf180mcu_fd_sc_mcu7t5v0__oai21_2 abstract view
.subckt gf180mcu_fd_sc_mcu7t5v0__oai21_2 A1 A2 B ZN VDD VSS
.ends

* Black-box entry subcircuit for gf180mcu_fd_sc_mcu7t5v0__aoi211_2 abstract view
.subckt gf180mcu_fd_sc_mcu7t5v0__aoi211_2 A1 A2 B C ZN VDD VSS
.ends

* Black-box entry subcircuit for gf180mcu_fd_sc_mcu7t5v0__oai211_2 abstract view
.subckt gf180mcu_fd_sc_mcu7t5v0__oai211_2 A1 A2 B C ZN VDD VSS
.ends

* Black-box entry subcircuit for gf180mcu_fd_sc_mcu7t5v0__or3_2 abstract view
.subckt gf180mcu_fd_sc_mcu7t5v0__or3_2 A1 A2 A3 Z VDD VSS
.ends

* Black-box entry subcircuit for gf180mcu_fd_sc_mcu7t5v0__clkbuf_1 abstract view
.subckt gf180mcu_fd_sc_mcu7t5v0__clkbuf_1 I Z VDD VSS
.ends

* Black-box entry subcircuit for gf180mcu_fd_sc_mcu7t5v0__buf_3 abstract view
.subckt gf180mcu_fd_sc_mcu7t5v0__buf_3 I Z VDD VSS
.ends

* Black-box entry subcircuit for gf180mcu_fd_sc_mcu7t5v0__clkbuf_3 abstract view
.subckt gf180mcu_fd_sc_mcu7t5v0__clkbuf_3 I Z VDD VSS
.ends

* Black-box entry subcircuit for gf180mcu_fd_sc_mcu7t5v0__buf_2 abstract view
.subckt gf180mcu_fd_sc_mcu7t5v0__buf_2 I Z VDD VSS
.ends

* Black-box entry subcircuit for gf180mcu_fd_sc_mcu7t5v0__or2_2 abstract view
.subckt gf180mcu_fd_sc_mcu7t5v0__or2_2 A1 A2 Z VDD VSS
.ends

* Black-box entry subcircuit for gf180mcu_fd_sc_mcu7t5v0__inv_1 abstract view
.subckt gf180mcu_fd_sc_mcu7t5v0__inv_1 I ZN VDD VSS
.ends

* Black-box entry subcircuit for gf180mcu_fd_sc_mcu7t5v0__and4_2 abstract view
.subckt gf180mcu_fd_sc_mcu7t5v0__and4_2 A1 A2 A3 A4 Z VDD VSS
.ends

* Black-box entry subcircuit for gf180mcu_fd_sc_mcu7t5v0__clkbuf_16 abstract view
.subckt gf180mcu_fd_sc_mcu7t5v0__clkbuf_16 I Z VDD VSS
.ends

* Black-box entry subcircuit for gf180mcu_fd_sc_mcu7t5v0__nor3_2 abstract view
.subckt gf180mcu_fd_sc_mcu7t5v0__nor3_2 A1 A2 A3 ZN VDD VSS
.ends

* Black-box entry subcircuit for gf180mcu_fd_sc_mcu7t5v0__aoi222_1 abstract view
.subckt gf180mcu_fd_sc_mcu7t5v0__aoi222_1 A1 A2 B1 B2 C1 C2 ZN VDD VSS
.ends

* Black-box entry subcircuit for gf180mcu_fd_sc_mcu7t5v0__endcap abstract view
.subckt gf180mcu_fd_sc_mcu7t5v0__endcap VDD VSS
.ends

* Black-box entry subcircuit for gf180mcu_fd_sc_mcu7t5v0__xor3_2 abstract view
.subckt gf180mcu_fd_sc_mcu7t5v0__xor3_2 A1 A2 A3 Z VDD VSS
.ends

* Black-box entry subcircuit for gf180mcu_fd_sc_mcu7t5v0__nand3_2 abstract view
.subckt gf180mcu_fd_sc_mcu7t5v0__nand3_2 A1 A2 A3 ZN VDD VSS
.ends

* Black-box entry subcircuit for gf180mcu_fd_sc_mcu7t5v0__aoi211_4 abstract view
.subckt gf180mcu_fd_sc_mcu7t5v0__aoi211_4 A1 A2 B C ZN VDD VSS
.ends

* Black-box entry subcircuit for gf180mcu_fd_sc_mcu7t5v0__clkbuf_4 abstract view
.subckt gf180mcu_fd_sc_mcu7t5v0__clkbuf_4 I Z VDD VSS
.ends

* Black-box entry subcircuit for gf180mcu_fd_sc_mcu7t5v0__buf_4 abstract view
.subckt gf180mcu_fd_sc_mcu7t5v0__buf_4 I Z VDD VSS
.ends

* Black-box entry subcircuit for gf180mcu_fd_sc_mcu7t5v0__nor2_4 abstract view
.subckt gf180mcu_fd_sc_mcu7t5v0__nor2_4 A1 A2 ZN VDD VSS
.ends

* Black-box entry subcircuit for gf180mcu_fd_sc_mcu7t5v0__aoi221_4 abstract view
.subckt gf180mcu_fd_sc_mcu7t5v0__aoi221_4 A1 A2 B1 B2 C ZN VDD VSS
.ends

* Black-box entry subcircuit for gf180mcu_fd_sc_mcu7t5v0__oai31_2 abstract view
.subckt gf180mcu_fd_sc_mcu7t5v0__oai31_2 A1 A2 A3 B ZN VDD VSS
.ends

* Black-box entry subcircuit for gf180mcu_fd_sc_mcu7t5v0__oai21_4 abstract view
.subckt gf180mcu_fd_sc_mcu7t5v0__oai21_4 A1 A2 B ZN VDD VSS
.ends

* Black-box entry subcircuit for gf180mcu_fd_sc_mcu7t5v0__and4_4 abstract view
.subckt gf180mcu_fd_sc_mcu7t5v0__and4_4 A1 A2 A3 A4 Z VDD VSS
.ends

* Black-box entry subcircuit for gf180mcu_fd_sc_mcu7t5v0__clkinv_3 abstract view
.subckt gf180mcu_fd_sc_mcu7t5v0__clkinv_3 I ZN VDD VSS
.ends

* Black-box entry subcircuit for gf180mcu_fd_sc_mcu7t5v0__nand4_2 abstract view
.subckt gf180mcu_fd_sc_mcu7t5v0__nand4_2 A1 A2 A3 A4 ZN VDD VSS
.ends

* Black-box entry subcircuit for gf180mcu_fd_sc_mcu7t5v0__tieh abstract view
.subckt gf180mcu_fd_sc_mcu7t5v0__tieh Z VDD VSS
.ends

* Black-box entry subcircuit for gf180mcu_fd_sc_mcu7t5v0__oai221_4 abstract view
.subckt gf180mcu_fd_sc_mcu7t5v0__oai221_4 A1 A2 B1 B2 C ZN VDD VSS
.ends

* Black-box entry subcircuit for gf180mcu_fd_sc_mcu7t5v0__buf_1 abstract view
.subckt gf180mcu_fd_sc_mcu7t5v0__buf_1 I Z VDD VSS
.ends

* Black-box entry subcircuit for gf180mcu_fd_sc_mcu7t5v0__dffq_2 abstract view
.subckt gf180mcu_fd_sc_mcu7t5v0__dffq_2 D CLK Q VDD VSS
.ends

* Black-box entry subcircuit for gf180mcu_fd_sc_mcu7t5v0__oai22_4 abstract view
.subckt gf180mcu_fd_sc_mcu7t5v0__oai22_4 A1 A2 B1 B2 ZN VDD VSS
.ends

* Black-box entry subcircuit for gf180mcu_fd_sc_mcu7t5v0__or4_2 abstract view
.subckt gf180mcu_fd_sc_mcu7t5v0__or4_2 A1 A2 A3 A4 Z VDD VSS
.ends

* Black-box entry subcircuit for gf180mcu_fd_sc_mcu7t5v0__oai22_2 abstract view
.subckt gf180mcu_fd_sc_mcu7t5v0__oai22_2 A1 A2 B1 B2 ZN VDD VSS
.ends

* Black-box entry subcircuit for gf180mcu_fd_sc_mcu7t5v0__clkbuf_12 abstract view
.subckt gf180mcu_fd_sc_mcu7t5v0__clkbuf_12 I Z VDD VSS
.ends

* Black-box entry subcircuit for gf180mcu_fd_sc_mcu7t5v0__tiel abstract view
.subckt gf180mcu_fd_sc_mcu7t5v0__tiel ZN VDD VSS
.ends

* Black-box entry subcircuit for gf180mcu_fd_sc_mcu7t5v0__aoi221_2 abstract view
.subckt gf180mcu_fd_sc_mcu7t5v0__aoi221_2 A1 A2 B1 B2 C ZN VDD VSS
.ends

* Black-box entry subcircuit for gf180mcu_fd_sc_mcu7t5v0__oai211_4 abstract view
.subckt gf180mcu_fd_sc_mcu7t5v0__oai211_4 A1 A2 B C ZN VDD VSS
.ends

* Black-box entry subcircuit for gf180mcu_fd_sc_mcu7t5v0__nor4_4 abstract view
.subckt gf180mcu_fd_sc_mcu7t5v0__nor4_4 A1 A2 A3 A4 ZN VDD VSS
.ends

* Black-box entry subcircuit for gf180mcu_fd_sc_mcu7t5v0__oai32_2 abstract view
.subckt gf180mcu_fd_sc_mcu7t5v0__oai32_2 A1 A2 A3 B1 B2 ZN VDD VSS
.ends

.subckt DSP48 io_in[0] io_in[10] io_in[11] io_in[12] io_in[13] io_in[14] io_in[15]
+ io_in[16] io_in[17] io_in[18] io_in[19] io_in[1] io_in[20] io_in[21] io_in[22] io_in[23]
+ io_in[24] io_in[25] io_in[26] io_in[27] io_in[28] io_in[29] io_in[2] io_in[30] io_in[31]
+ io_in[32] io_in[33] io_in[34] io_in[35] io_in[36] io_in[37] io_in[3] io_in[4] io_in[5]
+ io_in[6] io_in[7] io_in[8] io_in[9] io_oeb[0] io_oeb[10] io_oeb[11] io_oeb[12] io_oeb[13]
+ io_oeb[14] io_oeb[15] io_oeb[16] io_oeb[17] io_oeb[18] io_oeb[19] io_oeb[1] io_oeb[20]
+ io_oeb[21] io_oeb[22] io_oeb[23] io_oeb[24] io_oeb[25] io_oeb[26] io_oeb[27] io_oeb[28]
+ io_oeb[29] io_oeb[2] io_oeb[30] io_oeb[31] io_oeb[32] io_oeb[33] io_oeb[34] io_oeb[35]
+ io_oeb[36] io_oeb[37] io_oeb[3] io_oeb[4] io_oeb[5] io_oeb[6] io_oeb[7] io_oeb[8]
+ io_oeb[9] io_out[0] io_out[10] io_out[11] io_out[12] io_out[13] io_out[14] io_out[15]
+ io_out[16] io_out[17] io_out[18] io_out[19] io_out[1] io_out[20] io_out[21] io_out[22]
+ io_out[23] io_out[24] io_out[25] io_out[26] io_out[27] io_out[28] io_out[29] io_out[2]
+ io_out[30] io_out[31] io_out[32] io_out[33] io_out[34] io_out[35] io_out[36] io_out[37]
+ io_out[3] io_out[4] io_out[5] io_out[6] io_out[7] io_out[8] io_out[9] la_data_in[0]
+ la_data_in[10] la_data_in[11] la_data_in[12] la_data_in[13] la_data_in[14] la_data_in[15]
+ la_data_in[16] la_data_in[17] la_data_in[18] la_data_in[19] la_data_in[1] la_data_in[20]
+ la_data_in[21] la_data_in[22] la_data_in[23] la_data_in[24] la_data_in[25] la_data_in[26]
+ la_data_in[27] la_data_in[28] la_data_in[29] la_data_in[2] la_data_in[30] la_data_in[31]
+ la_data_in[32] la_data_in[33] la_data_in[34] la_data_in[35] la_data_in[36] la_data_in[37]
+ la_data_in[38] la_data_in[39] la_data_in[3] la_data_in[40] la_data_in[41] la_data_in[42]
+ la_data_in[43] la_data_in[44] la_data_in[45] la_data_in[46] la_data_in[47] la_data_in[48]
+ la_data_in[49] la_data_in[4] la_data_in[50] la_data_in[51] la_data_in[52] la_data_in[53]
+ la_data_in[54] la_data_in[55] la_data_in[56] la_data_in[57] la_data_in[58] la_data_in[59]
+ la_data_in[5] la_data_in[60] la_data_in[61] la_data_in[62] la_data_in[63] la_data_in[6]
+ la_data_in[7] la_data_in[8] la_data_in[9] user_clock2 vdd vss wb_ACK wb_ADR[0] wb_ADR[10]
+ wb_ADR[11] wb_ADR[12] wb_ADR[13] wb_ADR[14] wb_ADR[15] wb_ADR[16] wb_ADR[17] wb_ADR[18]
+ wb_ADR[19] wb_ADR[1] wb_ADR[20] wb_ADR[21] wb_ADR[22] wb_ADR[23] wb_ADR[24] wb_ADR[25]
+ wb_ADR[26] wb_ADR[27] wb_ADR[28] wb_ADR[29] wb_ADR[2] wb_ADR[30] wb_ADR[31] wb_ADR[3]
+ wb_ADR[4] wb_ADR[5] wb_ADR[6] wb_ADR[7] wb_ADR[8] wb_ADR[9] wb_CYC wb_DAT_MISO[0]
+ wb_DAT_MISO[10] wb_DAT_MISO[11] wb_DAT_MISO[12] wb_DAT_MISO[13] wb_DAT_MISO[14]
+ wb_DAT_MISO[15] wb_DAT_MISO[16] wb_DAT_MISO[17] wb_DAT_MISO[18] wb_DAT_MISO[19]
+ wb_DAT_MISO[1] wb_DAT_MISO[20] wb_DAT_MISO[21] wb_DAT_MISO[22] wb_DAT_MISO[23] wb_DAT_MISO[24]
+ wb_DAT_MISO[25] wb_DAT_MISO[26] wb_DAT_MISO[27] wb_DAT_MISO[28] wb_DAT_MISO[29]
+ wb_DAT_MISO[2] wb_DAT_MISO[30] wb_DAT_MISO[31] wb_DAT_MISO[3] wb_DAT_MISO[4] wb_DAT_MISO[5]
+ wb_DAT_MISO[6] wb_DAT_MISO[7] wb_DAT_MISO[8] wb_DAT_MISO[9] wb_DAT_MOSI[0] wb_DAT_MOSI[10]
+ wb_DAT_MOSI[11] wb_DAT_MOSI[12] wb_DAT_MOSI[13] wb_DAT_MOSI[14] wb_DAT_MOSI[15]
+ wb_DAT_MOSI[16] wb_DAT_MOSI[17] wb_DAT_MOSI[18] wb_DAT_MOSI[19] wb_DAT_MOSI[1] wb_DAT_MOSI[20]
+ wb_DAT_MOSI[21] wb_DAT_MOSI[22] wb_DAT_MOSI[23] wb_DAT_MOSI[24] wb_DAT_MOSI[25]
+ wb_DAT_MOSI[26] wb_DAT_MOSI[27] wb_DAT_MOSI[28] wb_DAT_MOSI[29] wb_DAT_MOSI[2] wb_DAT_MOSI[30]
+ wb_DAT_MOSI[31] wb_DAT_MOSI[3] wb_DAT_MOSI[4] wb_DAT_MOSI[5] wb_DAT_MOSI[6] wb_DAT_MOSI[7]
+ wb_DAT_MOSI[8] wb_DAT_MOSI[9] wb_SEL wb_STB wb_WE wb_clk_i wb_rst_i
XFILLER_95_851 vdd vss gf180mcu_fd_sc_mcu7t5v0__fill_1
XANTENNA__6209__A2 _2386_ vdd vss gf180mcu_fd_sc_mcu7t5v0__antenna
XFILLER_28_907 vdd vss gf180mcu_fd_sc_mcu7t5v0__fillcap_4
XFILLER_67_553 vdd vss gf180mcu_fd_sc_mcu7t5v0__fill_1
XFILLER_28_918 vdd vss gf180mcu_fd_sc_mcu7t5v0__fill_1
XFILLER_28_929 vdd vss gf180mcu_fd_sc_mcu7t5v0__fill_1
XANTENNA__3691__A2 net20 vdd vss gf180mcu_fd_sc_mcu7t5v0__antenna
XFILLER_54_203 vdd vss gf180mcu_fd_sc_mcu7t5v0__fillcap_16
XFILLER_27_428 vdd vss gf180mcu_fd_sc_mcu7t5v0__fill_1
XANTENNA__5968__A1 _2120_ vdd vss gf180mcu_fd_sc_mcu7t5v0__antenna
XFILLER_82_534 vdd vss gf180mcu_fd_sc_mcu7t5v0__fillcap_4
XANTENNA__3428__C1 _3004_ vdd vss gf180mcu_fd_sc_mcu7t5v0__antenna
XFILLER_36_940 vdd vss gf180mcu_fd_sc_mcu7t5v0__fill_2
XFILLER_54_236 vdd vss gf180mcu_fd_sc_mcu7t5v0__fillcap_4
XFILLER_54_247 vdd vss gf180mcu_fd_sc_mcu7t5v0__fill_1
X_6914_ _0068_ clknet_3_3__leaf_wb_clk_i dspArea_regB\[7\] vdd vss gf180mcu_fd_sc_mcu7t5v0__dffq_1
XFILLER_42_409 vdd vss gf180mcu_fd_sc_mcu7t5v0__fill_1
XFILLER_36_984 vdd vss gf180mcu_fd_sc_mcu7t5v0__fill_2
XFILLER_51_910 vdd vss gf180mcu_fd_sc_mcu7t5v0__fillcap_8
XFILLER_63_770 vdd vss gf180mcu_fd_sc_mcu7t5v0__fillcap_4
XFILLER_35_472 vdd vss gf180mcu_fd_sc_mcu7t5v0__fill_2
XANTENNA_input108_I wb_DAT_MOSI[18] vdd vss gf180mcu_fd_sc_mcu7t5v0__antenna
X_6845_ _0153_ net65 dacArea_dac_cnt_3\[3\] vdd vss gf180mcu_fd_sc_mcu7t5v0__dffq_1
XFILLER_23_634 vdd vss gf180mcu_fd_sc_mcu7t5v0__fill_2
XFILLER_51_943 vdd vss gf180mcu_fd_sc_mcu7t5v0__fill_2
XFILLER_51_954 vdd vss gf180mcu_fd_sc_mcu7t5v0__fill_2
XFILLER_35_1009 vdd vss gf180mcu_fd_sc_mcu7t5v0__fill_1
XFILLER_62_291 vdd vss gf180mcu_fd_sc_mcu7t5v0__fill_2
XFILLER_23_667 vdd vss gf180mcu_fd_sc_mcu7t5v0__fill_2
XANTENNA__6393__A1 _0792_ vdd vss gf180mcu_fd_sc_mcu7t5v0__antenna
X_6776_ dspArea_regP\[40\] _2942_ _2943_ vdd vss gf180mcu_fd_sc_mcu7t5v0__xor2_2
XFILLER_22_166 vdd vss gf180mcu_fd_sc_mcu7t5v0__fillcap_8
XFILLER_52_1312 vdd vss gf180mcu_fd_sc_mcu7t5v0__fill_1
XFILLER_108_1560 vdd vss gf180mcu_fd_sc_mcu7t5v0__fillcap_16
X_3988_ _0203_ net121 _0170_ _0204_ vdd vss gf180mcu_fd_sc_mcu7t5v0__mux2_2
XANTENNA_clkbuf_3_3__f_wb_clk_i_I clknet_0_wb_clk_i vdd vss gf180mcu_fd_sc_mcu7t5v0__antenna
XFILLER_17_1454 vdd vss gf180mcu_fd_sc_mcu7t5v0__fill_2
X_5727_ _0219_ _3057_ _1811_ _1910_ vdd vss gf180mcu_fd_sc_mcu7t5v0__and3_2
XFILLER_17_1487 vdd vss gf180mcu_fd_sc_mcu7t5v0__fillcap_4
XFILLER_13_1329 vdd vss gf180mcu_fd_sc_mcu7t5v0__fillcap_16
XFILLER_104_1457 vdd vss gf180mcu_fd_sc_mcu7t5v0__fillcap_64
X_5658_ _0529_ _3101_ _1842_ vdd vss gf180mcu_fd_sc_mcu7t5v0__and2_2
XFILLER_87_1419 vdd vss gf180mcu_fd_sc_mcu7t5v0__fill_1
XANTENNA_input73_I wb_ADR[16] vdd vss gf180mcu_fd_sc_mcu7t5v0__antenna
X_4609_ _0799_ _0802_ _0803_ vdd vss gf180mcu_fd_sc_mcu7t5v0__xor2_2
XFILLER_102_1170 vdd vss gf180mcu_fd_sc_mcu7t5v0__fill_1
XFILLER_123_208 vdd vss gf180mcu_fd_sc_mcu7t5v0__fillcap_4
X_5589_ _0791_ _1773_ vdd vss gf180mcu_fd_sc_mcu7t5v0__clkinv_1
XFILLER_117_783 vdd vss gf180mcu_fd_sc_mcu7t5v0__fillcap_64
XFILLER_117_66 vdd vss gf180mcu_fd_sc_mcu7t5v0__fillcap_4
XFILLER_78_818 vdd vss gf180mcu_fd_sc_mcu7t5v0__fill_1
XFILLER_89_144 vdd vss gf180mcu_fd_sc_mcu7t5v0__fillcap_64
XFILLER_105_989 vdd vss gf180mcu_fd_sc_mcu7t5v0__fillcap_4
XANTENNA__4459__A1 _0404_ vdd vss gf180mcu_fd_sc_mcu7t5v0__antenna
XFILLER_137_1277 vdd vss gf180mcu_fd_sc_mcu7t5v0__fill_1
XFILLER_58_531 vdd vss gf180mcu_fd_sc_mcu7t5v0__fill_1
XFILLER_115_1564 vdd vss gf180mcu_fd_sc_mcu7t5v0__fillcap_16
XTAP_3202 vdd vss gf180mcu_fd_sc_mcu7t5v0__filltie
XFILLER_58_575 vdd vss gf180mcu_fd_sc_mcu7t5v0__fill_1
XTAP_3213 vdd vss gf180mcu_fd_sc_mcu7t5v0__filltie
XTAP_3224 vdd vss gf180mcu_fd_sc_mcu7t5v0__filltie
XTAP_3235 vdd vss gf180mcu_fd_sc_mcu7t5v0__filltie
XTAP_2501 vdd vss gf180mcu_fd_sc_mcu7t5v0__filltie
XTAP_3246 vdd vss gf180mcu_fd_sc_mcu7t5v0__filltie
XFILLER_2_1232 vdd vss gf180mcu_fd_sc_mcu7t5v0__fill_2
XANTENNA__5959__A1 _2124_ vdd vss gf180mcu_fd_sc_mcu7t5v0__antenna
XTAP_3257 vdd vss gf180mcu_fd_sc_mcu7t5v0__filltie
XTAP_2512 vdd vss gf180mcu_fd_sc_mcu7t5v0__filltie
XTAP_3268 vdd vss gf180mcu_fd_sc_mcu7t5v0__filltie
XTAP_2523 vdd vss gf180mcu_fd_sc_mcu7t5v0__filltie
XFILLER_27_951 vdd vss gf180mcu_fd_sc_mcu7t5v0__fill_2
XTAP_3279 vdd vss gf180mcu_fd_sc_mcu7t5v0__filltie
XTAP_2534 vdd vss gf180mcu_fd_sc_mcu7t5v0__filltie
XFILLER_45_258 vdd vss gf180mcu_fd_sc_mcu7t5v0__fillcap_4
XFILLER_73_567 vdd vss gf180mcu_fd_sc_mcu7t5v0__fill_1
XTAP_2545 vdd vss gf180mcu_fd_sc_mcu7t5v0__filltie
XANTENNA__5423__A3 _1608_ vdd vss gf180mcu_fd_sc_mcu7t5v0__antenna
XTAP_1800 vdd vss gf180mcu_fd_sc_mcu7t5v0__filltie
XFILLER_73_578 vdd vss gf180mcu_fd_sc_mcu7t5v0__fillcap_4
XTAP_2556 vdd vss gf180mcu_fd_sc_mcu7t5v0__filltie
XTAP_1811 vdd vss gf180mcu_fd_sc_mcu7t5v0__filltie
XTAP_1822 vdd vss gf180mcu_fd_sc_mcu7t5v0__filltie
XTAP_2567 vdd vss gf180mcu_fd_sc_mcu7t5v0__filltie
XTAP_2578 vdd vss gf180mcu_fd_sc_mcu7t5v0__filltie
XFILLER_42_932 vdd vss gf180mcu_fd_sc_mcu7t5v0__fill_2
XTAP_1833 vdd vss gf180mcu_fd_sc_mcu7t5v0__filltie
XTAP_2589 vdd vss gf180mcu_fd_sc_mcu7t5v0__filltie
XFILLER_26_494 vdd vss gf180mcu_fd_sc_mcu7t5v0__fillcap_8
XFILLER_60_239 vdd vss gf180mcu_fd_sc_mcu7t5v0__fillcap_8
XTAP_1844 vdd vss gf180mcu_fd_sc_mcu7t5v0__filltie
XTAP_1855 vdd vss gf180mcu_fd_sc_mcu7t5v0__filltie
XTAP_1866 vdd vss gf180mcu_fd_sc_mcu7t5v0__filltie
XFILLER_144_1237 vdd vss gf180mcu_fd_sc_mcu7t5v0__fillcap_8
XFILLER_13_144 vdd vss gf180mcu_fd_sc_mcu7t5v0__fillcap_8
XFILLER_41_453 vdd vss gf180mcu_fd_sc_mcu7t5v0__fill_2
XFILLER_42_976 vdd vss gf180mcu_fd_sc_mcu7t5v0__fill_2
XTAP_1877 vdd vss gf180mcu_fd_sc_mcu7t5v0__filltie
XTAP_1888 vdd vss gf180mcu_fd_sc_mcu7t5v0__filltie
XANTENNA__5187__A2 _3034_ vdd vss gf180mcu_fd_sc_mcu7t5v0__antenna
XTAP_1899 vdd vss gf180mcu_fd_sc_mcu7t5v0__filltie
XFILLER_144_1259 vdd vss gf180mcu_fd_sc_mcu7t5v0__fill_1
XFILLER_13_166 vdd vss gf180mcu_fd_sc_mcu7t5v0__fill_2
XANTENNA__4934__A2 _3053_ vdd vss gf180mcu_fd_sc_mcu7t5v0__antenna
XFILLER_10_862 vdd vss gf180mcu_fd_sc_mcu7t5v0__fillcap_16
XANTENNA__3993__I0 _0207_ vdd vss gf180mcu_fd_sc_mcu7t5v0__antenna
XANTENNA__6136__A1 _0207_ vdd vss gf180mcu_fd_sc_mcu7t5v0__antenna
XFILLER_115_709 vdd vss gf180mcu_fd_sc_mcu7t5v0__fill_1
XFILLER_5_343 vdd vss gf180mcu_fd_sc_mcu7t5v0__fill_2
XFILLER_5_354 vdd vss gf180mcu_fd_sc_mcu7t5v0__fill_1
XFILLER_5_387 vdd vss gf180mcu_fd_sc_mcu7t5v0__fill_1
XFILLER_5_398 vdd vss gf180mcu_fd_sc_mcu7t5v0__fill_2
XFILLER_9_1419 vdd vss gf180mcu_fd_sc_mcu7t5v0__fill_1
XFILLER_68_339 vdd vss gf180mcu_fd_sc_mcu7t5v0__fillcap_4
XANTENNA__5111__A2 _3034_ vdd vss gf180mcu_fd_sc_mcu7t5v0__antenna
XFILLER_42_1525 vdd vss gf180mcu_fd_sc_mcu7t5v0__fill_1
XFILLER_49_531 vdd vss gf180mcu_fd_sc_mcu7t5v0__fillcap_4
XFILLER_27_1082 vdd vss gf180mcu_fd_sc_mcu7t5v0__fillcap_8
XFILLER_77_851 vdd vss gf180mcu_fd_sc_mcu7t5v0__fill_1
XFILLER_7_1154 vdd vss gf180mcu_fd_sc_mcu7t5v0__fill_2
XFILLER_67_70 vdd vss gf180mcu_fd_sc_mcu7t5v0__fill_1
XFILLER_7_1165 vdd vss gf180mcu_fd_sc_mcu7t5v0__fill_2
XFILLER_49_564 vdd vss gf180mcu_fd_sc_mcu7t5v0__fillcap_4
XANTENNA__3673__A2 net16 vdd vss gf180mcu_fd_sc_mcu7t5v0__antenna
XFILLER_36_214 vdd vss gf180mcu_fd_sc_mcu7t5v0__fill_2
XANTENNA__4870__B2 _1058_ vdd vss gf180mcu_fd_sc_mcu7t5v0__antenna
XFILLER_64_534 vdd vss gf180mcu_fd_sc_mcu7t5v0__fill_2
XANTENNA__3869__I net116 vdd vss gf180mcu_fd_sc_mcu7t5v0__antenna
XFILLER_64_567 vdd vss gf180mcu_fd_sc_mcu7t5v0__fill_2
XANTENNA__6611__A2 _3090_ vdd vss gf180mcu_fd_sc_mcu7t5v0__antenna
XFILLER_17_450 vdd vss gf180mcu_fd_sc_mcu7t5v0__fillcap_8
X_4960_ _1039_ _1042_ _1151_ vdd vss gf180mcu_fd_sc_mcu7t5v0__nor2_2
XANTENNA__4622__A1 _0217_ vdd vss gf180mcu_fd_sc_mcu7t5v0__antenna
XFILLER_33_921 vdd vss gf180mcu_fd_sc_mcu7t5v0__fill_2
XFILLER_17_483 vdd vss gf180mcu_fd_sc_mcu7t5v0__fill_2
XFILLER_45_792 vdd vss gf180mcu_fd_sc_mcu7t5v0__fill_2
X_3911_ net105 _3382_ vdd vss gf180mcu_fd_sc_mcu7t5v0__clkinv_1
XFILLER_17_494 vdd vss gf180mcu_fd_sc_mcu7t5v0__fill_2
X_4891_ _1080_ _1081_ _1082_ vdd vss gf180mcu_fd_sc_mcu7t5v0__and2_2
XFILLER_71_1209 vdd vss gf180mcu_fd_sc_mcu7t5v0__fillcap_64
X_6630_ _0792_ _2801_ _2802_ vdd vss gf180mcu_fd_sc_mcu7t5v0__and2_2
XANTENNA__6375__A1 _0241_ vdd vss gf180mcu_fd_sc_mcu7t5v0__antenna
X_3842_ _3292_ _3331_ _0032_ vdd vss gf180mcu_fd_sc_mcu7t5v0__and2_2
XFILLER_34_1020 vdd vss gf180mcu_fd_sc_mcu7t5v0__fill_2
XFILLER_34_1031 vdd vss gf180mcu_fd_sc_mcu7t5v0__fill_1
XFILLER_80_2 vdd vss gf180mcu_fd_sc_mcu7t5v0__fillcap_32
X_6561_ _2723_ _2733_ _2734_ vdd vss gf180mcu_fd_sc_mcu7t5v0__xor2_2
X_3773_ dacArea_dac_cnt_5\[5\] net40 _3277_ _3278_ vdd vss gf180mcu_fd_sc_mcu7t5v0__xnor3_2
XANTENNA__4925__A2 _3041_ vdd vss gf180mcu_fd_sc_mcu7t5v0__antenna
XFILLER_9_660 vdd vss gf180mcu_fd_sc_mcu7t5v0__fillcap_16
X_5512_ _1695_ _1696_ _1697_ vdd vss gf180mcu_fd_sc_mcu7t5v0__xnor2_2
XANTENNA__6127__A1 _2235_ vdd vss gf180mcu_fd_sc_mcu7t5v0__antenna
X_6492_ _2663_ _2665_ _2666_ vdd vss gf180mcu_fd_sc_mcu7t5v0__and2_2
XFILLER_121_1067 vdd vss gf180mcu_fd_sc_mcu7t5v0__fillcap_64
XANTENNA__6678__A2 _0259_ vdd vss gf180mcu_fd_sc_mcu7t5v0__antenna
X_5443_ _0180_ _3079_ _1629_ vdd vss gf180mcu_fd_sc_mcu7t5v0__nand2_2
XFILLER_69_1138 vdd vss gf180mcu_fd_sc_mcu7t5v0__fillcap_64
XFILLER_105_208 vdd vss gf180mcu_fd_sc_mcu7t5v0__fillcap_4
XFILLER_103_1490 vdd vss gf180mcu_fd_sc_mcu7t5v0__fill_1
X_5374_ _1456_ _1560_ _1561_ vdd vss gf180mcu_fd_sc_mcu7t5v0__and2_2
X_4325_ _0181_ _3029_ _0523_ vdd vss gf180mcu_fd_sc_mcu7t5v0__nand2_2
XFILLER_101_425 vdd vss gf180mcu_fd_sc_mcu7t5v0__fill_1
X_4256_ _0453_ _0454_ _0455_ vdd vss gf180mcu_fd_sc_mcu7t5v0__nor2_2
XANTENNA__5102__A2 _3032_ vdd vss gf180mcu_fd_sc_mcu7t5v0__antenna
XFILLER_45_1160 vdd vss gf180mcu_fd_sc_mcu7t5v0__fill_2
XFILLER_41_1024 vdd vss gf180mcu_fd_sc_mcu7t5v0__fill_1
XANTENNA__4456__A4 _3033_ vdd vss gf180mcu_fd_sc_mcu7t5v0__antenna
X_4187_ _0369_ _0387_ _0388_ vdd vss gf180mcu_fd_sc_mcu7t5v0__xnor2_2
XFILLER_80_1095 vdd vss gf180mcu_fd_sc_mcu7t5v0__fillcap_4
XFILLER_55_512 vdd vss gf180mcu_fd_sc_mcu7t5v0__fill_2
XFILLER_28_737 vdd vss gf180mcu_fd_sc_mcu7t5v0__fillcap_8
XFILLER_83_854 vdd vss gf180mcu_fd_sc_mcu7t5v0__fillcap_64
XANTENNA__6921__CLK clknet_3_6__leaf_wb_clk_i vdd vss gf180mcu_fd_sc_mcu7t5v0__antenna
XFILLER_27_258 vdd vss gf180mcu_fd_sc_mcu7t5v0__fill_2
XFILLER_110_1450 vdd vss gf180mcu_fd_sc_mcu7t5v0__fillcap_4
XFILLER_55_578 vdd vss gf180mcu_fd_sc_mcu7t5v0__fill_2
XFILLER_58_1521 vdd vss gf180mcu_fd_sc_mcu7t5v0__fillcap_4
XTAP_1107 vdd vss gf180mcu_fd_sc_mcu7t5v0__filltie
XTAP_1118 vdd vss gf180mcu_fd_sc_mcu7t5v0__filltie
XTAP_1129 vdd vss gf180mcu_fd_sc_mcu7t5v0__filltie
XFILLER_23_431 vdd vss gf180mcu_fd_sc_mcu7t5v0__fill_2
XFILLER_58_1576 vdd vss gf180mcu_fd_sc_mcu7t5v0__fillcap_4
XFILLER_50_250 vdd vss gf180mcu_fd_sc_mcu7t5v0__fillcap_4
X_6828_ _0136_ net65 dacArea_dac_cnt_1\[2\] vdd vss gf180mcu_fd_sc_mcu7t5v0__dffq_1
XFILLER_24_998 vdd vss gf180mcu_fd_sc_mcu7t5v0__fill_1
XFILLER_10_103 vdd vss gf180mcu_fd_sc_mcu7t5v0__fill_2
X_6759_ _2911_ _2913_ _2926_ _2927_ vdd vss gf180mcu_fd_sc_mcu7t5v0__oai21_2
XFILLER_12_10 vdd vss gf180mcu_fd_sc_mcu7t5v0__fillcap_4
XFILLER_3_803 vdd vss gf180mcu_fd_sc_mcu7t5v0__fillcap_8
XFILLER_3_814 vdd vss gf180mcu_fd_sc_mcu7t5v0__fillcap_4
XFILLER_2_302 vdd vss gf180mcu_fd_sc_mcu7t5v0__fill_2
XFILLER_3_836 vdd vss gf180mcu_fd_sc_mcu7t5v0__fill_1
XFILLER_59_851 vdd vss gf180mcu_fd_sc_mcu7t5v0__fill_1
XFILLER_24_1244 vdd vss gf180mcu_fd_sc_mcu7t5v0__fillcap_64
XFILLER_19_715 vdd vss gf180mcu_fd_sc_mcu7t5v0__fill_2
XFILLER_19_726 vdd vss gf180mcu_fd_sc_mcu7t5v0__fill_2
XFILLER_98_1312 vdd vss gf180mcu_fd_sc_mcu7t5v0__fill_1
XTAP_3010 vdd vss gf180mcu_fd_sc_mcu7t5v0__filltie
XFILLER_18_203 vdd vss gf180mcu_fd_sc_mcu7t5v0__fillcap_8
XFILLER_19_737 vdd vss gf180mcu_fd_sc_mcu7t5v0__fill_2
XFILLER_18_214 vdd vss gf180mcu_fd_sc_mcu7t5v0__fillcap_4
XTAP_3021 vdd vss gf180mcu_fd_sc_mcu7t5v0__filltie
XFILLER_19_748 vdd vss gf180mcu_fd_sc_mcu7t5v0__fill_2
XANTENNA__3910__C _3373_ vdd vss gf180mcu_fd_sc_mcu7t5v0__antenna
XFILLER_46_534 vdd vss gf180mcu_fd_sc_mcu7t5v0__fillcap_4
XTAP_3032 vdd vss gf180mcu_fd_sc_mcu7t5v0__filltie
XTAP_3043 vdd vss gf180mcu_fd_sc_mcu7t5v0__filltie
XFILLER_18_247 vdd vss gf180mcu_fd_sc_mcu7t5v0__fill_1
XFILLER_37_73 vdd vss gf180mcu_fd_sc_mcu7t5v0__fillcap_8
XFILLER_41_1580 vdd vss gf180mcu_fd_sc_mcu7t5v0__fill_1
XTAP_3054 vdd vss gf180mcu_fd_sc_mcu7t5v0__filltie
XTAP_2320 vdd vss gf180mcu_fd_sc_mcu7t5v0__filltie
XTAP_3065 vdd vss gf180mcu_fd_sc_mcu7t5v0__filltie
XFILLER_46_578 vdd vss gf180mcu_fd_sc_mcu7t5v0__fill_2
XTAP_3076 vdd vss gf180mcu_fd_sc_mcu7t5v0__filltie
XTAP_2331 vdd vss gf180mcu_fd_sc_mcu7t5v0__filltie
XTAP_3087 vdd vss gf180mcu_fd_sc_mcu7t5v0__filltie
XFILLER_33_217 vdd vss gf180mcu_fd_sc_mcu7t5v0__fill_1
XANTENNA__4604__A1 _0227_ vdd vss gf180mcu_fd_sc_mcu7t5v0__antenna
XFILLER_61_526 vdd vss gf180mcu_fd_sc_mcu7t5v0__fill_2
XTAP_2342 vdd vss gf180mcu_fd_sc_mcu7t5v0__filltie
XTAP_3098 vdd vss gf180mcu_fd_sc_mcu7t5v0__filltie
XTAP_2353 vdd vss gf180mcu_fd_sc_mcu7t5v0__filltie
XFILLER_15_932 vdd vss gf180mcu_fd_sc_mcu7t5v0__fillcap_16
XTAP_2364 vdd vss gf180mcu_fd_sc_mcu7t5v0__filltie
XFILLER_2_1095 vdd vss gf180mcu_fd_sc_mcu7t5v0__fill_2
XTAP_1630 vdd vss gf180mcu_fd_sc_mcu7t5v0__filltie
XTAP_2375 vdd vss gf180mcu_fd_sc_mcu7t5v0__filltie
XTAP_1641 vdd vss gf180mcu_fd_sc_mcu7t5v0__filltie
XTAP_2386 vdd vss gf180mcu_fd_sc_mcu7t5v0__filltie
XANTENNA__4080__A2 _0283_ vdd vss gf180mcu_fd_sc_mcu7t5v0__antenna
XFILLER_57_1064 vdd vss gf180mcu_fd_sc_mcu7t5v0__fill_1
XTAP_1652 vdd vss gf180mcu_fd_sc_mcu7t5v0__filltie
XTAP_2397 vdd vss gf180mcu_fd_sc_mcu7t5v0__filltie
XTAP_1663 vdd vss gf180mcu_fd_sc_mcu7t5v0__filltie
XTAP_1674 vdd vss gf180mcu_fd_sc_mcu7t5v0__filltie
XTAP_1685 vdd vss gf180mcu_fd_sc_mcu7t5v0__filltie
XFILLER_18_1048 vdd vss gf180mcu_fd_sc_mcu7t5v0__fill_2
XFILLER_14_475 vdd vss gf180mcu_fd_sc_mcu7t5v0__fill_2
XFILLER_42_784 vdd vss gf180mcu_fd_sc_mcu7t5v0__fill_1
XTAP_1696 vdd vss gf180mcu_fd_sc_mcu7t5v0__filltie
XFILLER_14_486 vdd vss gf180mcu_fd_sc_mcu7t5v0__fillcap_16
XFILLER_53_94 vdd vss gf180mcu_fd_sc_mcu7t5v0__fill_2
XFILLER_30_957 vdd vss gf180mcu_fd_sc_mcu7t5v0__fill_1
XFILLER_30_968 vdd vss gf180mcu_fd_sc_mcu7t5v0__fill_2
XFILLER_35_1351 vdd vss gf180mcu_fd_sc_mcu7t5v0__fillcap_64
XANTENNA__4907__A2 _3029_ vdd vss gf180mcu_fd_sc_mcu7t5v0__antenna
XFILLER_128_889 vdd vss gf180mcu_fd_sc_mcu7t5v0__fillcap_64
XFILLER_142_314 vdd vss gf180mcu_fd_sc_mcu7t5v0__fillcap_4
XFILLER_52_6 vdd vss gf180mcu_fd_sc_mcu7t5v0__fill_2
XFILLER_143_848 vdd vss gf180mcu_fd_sc_mcu7t5v0__fillcap_4
XFILLER_29_1122 vdd vss gf180mcu_fd_sc_mcu7t5v0__fillcap_8
XFILLER_111_712 vdd vss gf180mcu_fd_sc_mcu7t5v0__fillcap_64
X_4110_ _0285_ _0313_ vdd vss gf180mcu_fd_sc_mcu7t5v0__clkinv_1
X_5090_ _0240_ _3017_ _1279_ vdd vss gf180mcu_fd_sc_mcu7t5v0__nand2_2
XFILLER_69_659 vdd vss gf180mcu_fd_sc_mcu7t5v0__fill_2
XANTENNA__5096__A1 _1198_ vdd vss gf180mcu_fd_sc_mcu7t5v0__antenna
XANTENNA__6944__CLK clknet_3_5__leaf_wb_clk_i vdd vss gf180mcu_fd_sc_mcu7t5v0__antenna
XFILLER_96_456 vdd vss gf180mcu_fd_sc_mcu7t5v0__fillcap_4
X_4041_ net98 net159 _0248_ vdd vss gf180mcu_fd_sc_mcu7t5v0__nand2_2
XFILLER_65_821 vdd vss gf180mcu_fd_sc_mcu7t5v0__fillcap_8
XFILLER_65_854 vdd vss gf180mcu_fd_sc_mcu7t5v0__fillcap_4
XFILLER_76_191 vdd vss gf180mcu_fd_sc_mcu7t5v0__fill_2
XFILLER_37_567 vdd vss gf180mcu_fd_sc_mcu7t5v0__fill_1
XFILLER_64_353 vdd vss gf180mcu_fd_sc_mcu7t5v0__fill_2
XFILLER_64_364 vdd vss gf180mcu_fd_sc_mcu7t5v0__fill_2
XFILLER_92_673 vdd vss gf180mcu_fd_sc_mcu7t5v0__fill_1
X_5992_ _2076_ _0297_ _2172_ _1461_ _0103_ vdd vss gf180mcu_fd_sc_mcu7t5v0__aoi211_2
XFILLER_18_792 vdd vss gf180mcu_fd_sc_mcu7t5v0__fill_2
XFILLER_52_537 vdd vss gf180mcu_fd_sc_mcu7t5v0__fill_2
XFILLER_52_548 vdd vss gf180mcu_fd_sc_mcu7t5v0__fill_2
X_4943_ _1131_ _1133_ _1134_ vdd vss gf180mcu_fd_sc_mcu7t5v0__xor2_2
XFILLER_75_1131 vdd vss gf180mcu_fd_sc_mcu7t5v0__fillcap_4
XANTENNA__4071__A2 _3017_ vdd vss gf180mcu_fd_sc_mcu7t5v0__antenna
XANTENNA__6348__A1 _0634_ vdd vss gf180mcu_fd_sc_mcu7t5v0__antenna
XFILLER_32_250 vdd vss gf180mcu_fd_sc_mcu7t5v0__fillcap_4
X_4874_ _1062_ _1063_ _1064_ _1057_ _1065_ vdd vss gf180mcu_fd_sc_mcu7t5v0__oai211_2
XFILLER_20_412 vdd vss gf180mcu_fd_sc_mcu7t5v0__fill_1
XFILLER_36_1159 vdd vss gf180mcu_fd_sc_mcu7t5v0__fill_2
XFILLER_18_1560 vdd vss gf180mcu_fd_sc_mcu7t5v0__fillcap_16
X_6613_ _2776_ _2784_ _2785_ vdd vss gf180mcu_fd_sc_mcu7t5v0__xnor2_2
X_3825_ dacArea_dac_cnt_7\[1\] net53 _3318_ vdd vss gf180mcu_fd_sc_mcu7t5v0__xor2_2
XFILLER_21_979 vdd vss gf180mcu_fd_sc_mcu7t5v0__fillcap_8
XANTENNA__5020__A1 _0184_ vdd vss gf180mcu_fd_sc_mcu7t5v0__antenna
X_6544_ _2712_ _2716_ _2717_ vdd vss gf180mcu_fd_sc_mcu7t5v0__xnor2_2
XFILLER_140_1454 vdd vss gf180mcu_fd_sc_mcu7t5v0__fill_1
XFILLER_14_1457 vdd vss gf180mcu_fd_sc_mcu7t5v0__fill_1
X_3756_ dacArea_dac_cnt_5\[1\] net36 _3264_ vdd vss gf180mcu_fd_sc_mcu7t5v0__nand2_2
XANTENNA__5571__A2 _1658_ vdd vss gf180mcu_fd_sc_mcu7t5v0__antenna
XFILLER_88_1525 vdd vss gf180mcu_fd_sc_mcu7t5v0__fill_1
XFILLER_134_815 vdd vss gf180mcu_fd_sc_mcu7t5v0__fill_1
X_6475_ _2647_ _2648_ _2649_ vdd vss gf180mcu_fd_sc_mcu7t5v0__and2_2
X_3687_ _3207_ _3209_ _3210_ vdd vss gf180mcu_fd_sc_mcu7t5v0__nand2_2
XFILLER_12_1170 vdd vss gf180mcu_fd_sc_mcu7t5v0__fill_1
X_5426_ _1591_ _1593_ _1610_ _1612_ vdd vss gf180mcu_fd_sc_mcu7t5v0__oai21_2
XANTENNA__5323__A2 _3066_ vdd vss gf180mcu_fd_sc_mcu7t5v0__antenna
XFILLER_82_1102 vdd vss gf180mcu_fd_sc_mcu7t5v0__fillcap_64
X_5357_ _1440_ _1441_ _1439_ _1544_ vdd vss gf180mcu_fd_sc_mcu7t5v0__oai21_2
XFILLER_0_828 vdd vss gf180mcu_fd_sc_mcu7t5v0__fill_2
XFILLER_138_1383 vdd vss gf180mcu_fd_sc_mcu7t5v0__fill_1