*SPEF "ieee 1481-1999"
*DESIGN "user_project_wrapper"
*DATE "11:11:11 Fri 11 11, 1111"
*VENDOR "OpenRCX"
*PROGRAM "Parallel Extraction"
*VERSION "1.0"
*DESIGN_FLOW "NAME_SCOPE LOCAL" "PIN_CAP NONE"
*DIVIDER /
*DELIMITER :
*BUS_DELIMITER []
*T_UNIT 1 NS
*C_UNIT 1 PF
*R_UNIT 1 OHM
*L_UNIT 1 HENRY

*NAME_MAP
*1 io_in[0]
*2 io_in[10]
*3 io_in[11]
*4 io_in[12]
*5 io_in[13]
*6 io_in[14]
*7 io_in[15]
*8 io_in[16]
*9 io_in[17]
*10 io_in[18]
*11 io_in[19]
*12 io_in[1]
*13 io_in[20]
*14 io_in[21]
*15 io_in[22]
*16 io_in[23]
*17 io_in[24]
*18 io_in[25]
*19 io_in[26]
*20 io_in[27]
*21 io_in[28]
*22 io_in[29]
*23 io_in[2]
*24 io_in[30]
*25 io_in[31]
*26 io_in[32]
*27 io_in[33]
*28 io_in[34]
*29 io_in[35]
*30 io_in[36]
*31 io_in[37]
*32 io_in[3]
*33 io_in[4]
*34 io_in[5]
*35 io_in[6]
*36 io_in[7]
*37 io_in[8]
*38 io_in[9]
*39 io_oeb[0]
*40 io_oeb[10]
*41 io_oeb[11]
*42 io_oeb[12]
*43 io_oeb[13]
*44 io_oeb[14]
*45 io_oeb[15]
*46 io_oeb[16]
*47 io_oeb[17]
*48 io_oeb[18]
*49 io_oeb[19]
*50 io_oeb[1]
*51 io_oeb[20]
*52 io_oeb[21]
*53 io_oeb[22]
*54 io_oeb[23]
*55 io_oeb[24]
*56 io_oeb[25]
*57 io_oeb[26]
*58 io_oeb[27]
*59 io_oeb[28]
*60 io_oeb[29]
*61 io_oeb[2]
*62 io_oeb[30]
*63 io_oeb[31]
*64 io_oeb[32]
*65 io_oeb[33]
*66 io_oeb[34]
*67 io_oeb[35]
*68 io_oeb[36]
*69 io_oeb[37]
*70 io_oeb[3]
*71 io_oeb[4]
*72 io_oeb[5]
*73 io_oeb[6]
*74 io_oeb[7]
*75 io_oeb[8]
*76 io_oeb[9]
*77 io_out[0]
*78 io_out[10]
*79 io_out[11]
*80 io_out[12]
*81 io_out[13]
*82 io_out[14]
*83 io_out[15]
*84 io_out[16]
*85 io_out[17]
*86 io_out[18]
*87 io_out[19]
*88 io_out[1]
*89 io_out[20]
*90 io_out[21]
*91 io_out[22]
*92 io_out[23]
*93 io_out[24]
*94 io_out[25]
*95 io_out[26]
*96 io_out[27]
*97 io_out[28]
*98 io_out[29]
*99 io_out[2]
*100 io_out[30]
*101 io_out[31]
*102 io_out[32]
*103 io_out[33]
*104 io_out[34]
*105 io_out[35]
*106 io_out[36]
*107 io_out[37]
*108 io_out[3]
*109 io_out[4]
*110 io_out[5]
*111 io_out[6]
*112 io_out[7]
*113 io_out[8]
*114 io_out[9]
*115 la_data_in[0]
*116 la_data_in[10]
*117 la_data_in[11]
*118 la_data_in[12]
*119 la_data_in[13]
*120 la_data_in[14]
*121 la_data_in[15]
*122 la_data_in[16]
*123 la_data_in[17]
*124 la_data_in[18]
*125 la_data_in[19]
*126 la_data_in[1]
*127 la_data_in[20]
*128 la_data_in[21]
*129 la_data_in[22]
*130 la_data_in[23]
*131 la_data_in[24]
*132 la_data_in[25]
*133 la_data_in[26]
*134 la_data_in[27]
*135 la_data_in[28]
*136 la_data_in[29]
*137 la_data_in[2]
*138 la_data_in[30]
*139 la_data_in[31]
*140 la_data_in[32]
*141 la_data_in[33]
*142 la_data_in[34]
*143 la_data_in[35]
*144 la_data_in[36]
*145 la_data_in[37]
*146 la_data_in[38]
*147 la_data_in[39]
*148 la_data_in[3]
*149 la_data_in[40]
*150 la_data_in[41]
*151 la_data_in[42]
*152 la_data_in[43]
*153 la_data_in[44]
*154 la_data_in[45]
*155 la_data_in[46]
*156 la_data_in[47]
*157 la_data_in[48]
*158 la_data_in[49]
*159 la_data_in[4]
*160 la_data_in[50]
*161 la_data_in[51]
*162 la_data_in[52]
*163 la_data_in[53]
*164 la_data_in[54]
*165 la_data_in[55]
*166 la_data_in[56]
*167 la_data_in[57]
*168 la_data_in[58]
*169 la_data_in[59]
*170 la_data_in[5]
*171 la_data_in[60]
*172 la_data_in[61]
*173 la_data_in[62]
*174 la_data_in[63]
*175 la_data_in[6]
*176 la_data_in[7]
*177 la_data_in[8]
*178 la_data_in[9]
*179 la_data_out[0]
*180 la_data_out[10]
*181 la_data_out[11]
*182 la_data_out[12]
*183 la_data_out[13]
*184 la_data_out[14]
*185 la_data_out[15]
*186 la_data_out[16]
*187 la_data_out[17]
*188 la_data_out[18]
*189 la_data_out[19]
*190 la_data_out[1]
*191 la_data_out[20]
*192 la_data_out[21]
*193 la_data_out[22]
*194 la_data_out[23]
*195 la_data_out[24]
*196 la_data_out[25]
*197 la_data_out[26]
*198 la_data_out[27]
*199 la_data_out[28]
*200 la_data_out[29]
*201 la_data_out[2]
*202 la_data_out[30]
*203 la_data_out[31]
*204 la_data_out[32]
*205 la_data_out[33]
*206 la_data_out[34]
*207 la_data_out[35]
*208 la_data_out[36]
*209 la_data_out[37]
*210 la_data_out[38]
*211 la_data_out[39]
*212 la_data_out[3]
*213 la_data_out[40]
*214 la_data_out[41]
*215 la_data_out[42]
*216 la_data_out[43]
*217 la_data_out[44]
*218 la_data_out[45]
*219 la_data_out[46]
*220 la_data_out[47]
*221 la_data_out[48]
*222 la_data_out[49]
*223 la_data_out[4]
*224 la_data_out[50]
*225 la_data_out[51]
*226 la_data_out[52]
*227 la_data_out[53]
*228 la_data_out[54]
*229 la_data_out[55]
*230 la_data_out[56]
*231 la_data_out[57]
*232 la_data_out[58]
*233 la_data_out[59]
*234 la_data_out[5]
*235 la_data_out[60]
*236 la_data_out[61]
*237 la_data_out[62]
*238 la_data_out[63]
*239 la_data_out[6]
*240 la_data_out[7]
*241 la_data_out[8]
*242 la_data_out[9]
*243 la_oenb[0]
*244 la_oenb[10]
*245 la_oenb[11]
*246 la_oenb[12]
*247 la_oenb[13]
*248 la_oenb[14]
*249 la_oenb[15]
*250 la_oenb[16]
*251 la_oenb[17]
*252 la_oenb[18]
*253 la_oenb[19]
*254 la_oenb[1]
*255 la_oenb[20]
*256 la_oenb[21]
*257 la_oenb[22]
*258 la_oenb[23]
*259 la_oenb[24]
*260 la_oenb[25]
*261 la_oenb[26]
*262 la_oenb[27]
*263 la_oenb[28]
*264 la_oenb[29]
*265 la_oenb[2]
*266 la_oenb[30]
*267 la_oenb[31]
*268 la_oenb[32]
*269 la_oenb[33]
*270 la_oenb[34]
*271 la_oenb[35]
*272 la_oenb[36]
*273 la_oenb[37]
*274 la_oenb[38]
*275 la_oenb[39]
*276 la_oenb[3]
*277 la_oenb[40]
*278 la_oenb[41]
*279 la_oenb[42]
*280 la_oenb[43]
*281 la_oenb[44]
*282 la_oenb[45]
*283 la_oenb[46]
*284 la_oenb[47]
*285 la_oenb[48]
*286 la_oenb[49]
*287 la_oenb[4]
*288 la_oenb[50]
*289 la_oenb[51]
*290 la_oenb[52]
*291 la_oenb[53]
*292 la_oenb[54]
*293 la_oenb[55]
*294 la_oenb[56]
*295 la_oenb[57]
*296 la_oenb[58]
*297 la_oenb[59]
*298 la_oenb[5]
*299 la_oenb[60]
*300 la_oenb[61]
*301 la_oenb[62]
*302 la_oenb[63]
*303 la_oenb[6]
*304 la_oenb[7]
*305 la_oenb[8]
*306 la_oenb[9]
*307 user_clock2
*308 user_irq[0]
*309 user_irq[1]
*310 user_irq[2]
*313 wb_clk_i
*314 wb_rst_i
*315 wbs_ack_o
*316 wbs_adr_i[0]
*317 wbs_adr_i[10]
*318 wbs_adr_i[11]
*319 wbs_adr_i[12]
*320 wbs_adr_i[13]
*321 wbs_adr_i[14]
*322 wbs_adr_i[15]
*323 wbs_adr_i[16]
*324 wbs_adr_i[17]
*325 wbs_adr_i[18]
*326 wbs_adr_i[19]
*327 wbs_adr_i[1]
*328 wbs_adr_i[20]
*329 wbs_adr_i[21]
*330 wbs_adr_i[22]
*331 wbs_adr_i[23]
*332 wbs_adr_i[24]
*333 wbs_adr_i[25]
*334 wbs_adr_i[26]
*335 wbs_adr_i[27]
*336 wbs_adr_i[28]
*337 wbs_adr_i[29]
*338 wbs_adr_i[2]
*339 wbs_adr_i[30]
*340 wbs_adr_i[31]
*341 wbs_adr_i[3]
*342 wbs_adr_i[4]
*343 wbs_adr_i[5]
*344 wbs_adr_i[6]
*345 wbs_adr_i[7]
*346 wbs_adr_i[8]
*347 wbs_adr_i[9]
*348 wbs_cyc_i
*349 wbs_dat_i[0]
*350 wbs_dat_i[10]
*351 wbs_dat_i[11]
*352 wbs_dat_i[12]
*353 wbs_dat_i[13]
*354 wbs_dat_i[14]
*355 wbs_dat_i[15]
*356 wbs_dat_i[16]
*357 wbs_dat_i[17]
*358 wbs_dat_i[18]
*359 wbs_dat_i[19]
*360 wbs_dat_i[1]
*361 wbs_dat_i[20]
*362 wbs_dat_i[21]
*363 wbs_dat_i[22]
*364 wbs_dat_i[23]
*365 wbs_dat_i[24]
*366 wbs_dat_i[25]
*367 wbs_dat_i[26]
*368 wbs_dat_i[27]
*369 wbs_dat_i[28]
*370 wbs_dat_i[29]
*371 wbs_dat_i[2]
*372 wbs_dat_i[30]
*373 wbs_dat_i[31]
*374 wbs_dat_i[3]
*375 wbs_dat_i[4]
*376 wbs_dat_i[5]
*377 wbs_dat_i[6]
*378 wbs_dat_i[7]
*379 wbs_dat_i[8]
*380 wbs_dat_i[9]
*381 wbs_dat_o[0]
*382 wbs_dat_o[10]
*383 wbs_dat_o[11]
*384 wbs_dat_o[12]
*385 wbs_dat_o[13]
*386 wbs_dat_o[14]
*387 wbs_dat_o[15]
*388 wbs_dat_o[16]
*389 wbs_dat_o[17]
*390 wbs_dat_o[18]
*391 wbs_dat_o[19]
*392 wbs_dat_o[1]
*393 wbs_dat_o[20]
*394 wbs_dat_o[21]
*395 wbs_dat_o[22]
*396 wbs_dat_o[23]
*397 wbs_dat_o[24]
*398 wbs_dat_o[25]
*399 wbs_dat_o[26]
*400 wbs_dat_o[27]
*401 wbs_dat_o[28]
*402 wbs_dat_o[29]
*403 wbs_dat_o[2]
*404 wbs_dat_o[30]
*405 wbs_dat_o[31]
*406 wbs_dat_o[3]
*407 wbs_dat_o[4]
*408 wbs_dat_o[5]
*409 wbs_dat_o[6]
*410 wbs_dat_o[7]
*411 wbs_dat_o[8]
*412 wbs_dat_o[9]
*413 wbs_sel_i[0]
*414 wbs_sel_i[1]
*415 wbs_sel_i[2]
*416 wbs_sel_i[3]
*417 wbs_stb_i
*418 wbs_we_i
*419 mprj

*PORTS
io_in[0] I
io_in[10] I
io_in[11] I
io_in[12] I
io_in[13] I
io_in[14] I
io_in[15] I
io_in[16] I
io_in[17] I
io_in[18] I
io_in[19] I
io_in[1] I
io_in[20] I
io_in[21] I
io_in[22] I
io_in[23] I
io_in[24] I
io_in[25] I
io_in[26] I
io_in[27] I
io_in[28] I
io_in[29] I
io_in[2] I
io_in[30] I
io_in[31] I
io_in[32] I
io_in[33] I
io_in[34] I
io_in[35] I
io_in[36] I
io_in[37] I
io_in[3] I
io_in[4] I
io_in[5] I
io_in[6] I
io_in[7] I
io_in[8] I
io_in[9] I
io_oeb[0] O
io_oeb[10] O
io_oeb[11] O
io_oeb[12] O
io_oeb[13] O
io_oeb[14] O
io_oeb[15] O
io_oeb[16] O
io_oeb[17] O
io_oeb[18] O
io_oeb[19] O
io_oeb[1] O
io_oeb[20] O
io_oeb[21] O
io_oeb[22] O
io_oeb[23] O
io_oeb[24] O
io_oeb[25] O
io_oeb[26] O
io_oeb[27] O
io_oeb[28] O
io_oeb[29] O
io_oeb[2] O
io_oeb[30] O
io_oeb[31] O
io_oeb[32] O
io_oeb[33] O
io_oeb[34] O
io_oeb[35] O
io_oeb[36] O
io_oeb[37] O
io_oeb[3] O
io_oeb[4] O
io_oeb[5] O
io_oeb[6] O
io_oeb[7] O
io_oeb[8] O
io_oeb[9] O
io_out[0] O
io_out[10] O
io_out[11] O
io_out[12] O
io_out[13] O
io_out[14] O
io_out[15] O
io_out[16] O
io_out[17] O
io_out[18] O
io_out[19] O
io_out[1] O
io_out[20] O
io_out[21] O
io_out[22] O
io_out[23] O
io_out[24] O
io_out[25] O
io_out[26] O
io_out[27] O
io_out[28] O
io_out[29] O
io_out[2] O
io_out[30] O
io_out[31] O
io_out[32] O
io_out[33] O
io_out[34] O
io_out[35] O
io_out[36] O
io_out[37] O
io_out[3] O
io_out[4] O
io_out[5] O
io_out[6] O
io_out[7] O
io_out[8] O
io_out[9] O
la_data_in[0] I
la_data_in[10] I
la_data_in[11] I
la_data_in[12] I
la_data_in[13] I
la_data_in[14] I
la_data_in[15] I
la_data_in[16] I
la_data_in[17] I
la_data_in[18] I
la_data_in[19] I
la_data_in[1] I
la_data_in[20] I
la_data_in[21] I
la_data_in[22] I
la_data_in[23] I
la_data_in[24] I
la_data_in[25] I
la_data_in[26] I
la_data_in[27] I
la_data_in[28] I
la_data_in[29] I
la_data_in[2] I
la_data_in[30] I
la_data_in[31] I
la_data_in[32] I
la_data_in[33] I
la_data_in[34] I
la_data_in[35] I
la_data_in[36] I
la_data_in[37] I
la_data_in[38] I
la_data_in[39] I
la_data_in[3] I
la_data_in[40] I
la_data_in[41] I
la_data_in[42] I
la_data_in[43] I
la_data_in[44] I
la_data_in[45] I
la_data_in[46] I
la_data_in[47] I
la_data_in[48] I
la_data_in[49] I
la_data_in[4] I
la_data_in[50] I
la_data_in[51] I
la_data_in[52] I
la_data_in[53] I
la_data_in[54] I
la_data_in[55] I
la_data_in[56] I
la_data_in[57] I
la_data_in[58] I
la_data_in[59] I
la_data_in[5] I
la_data_in[60] I
la_data_in[61] I
la_data_in[62] I
la_data_in[63] I
la_data_in[6] I
la_data_in[7] I
la_data_in[8] I
la_data_in[9] I
la_data_out[0] O
la_data_out[10] O
la_data_out[11] O
la_data_out[12] O
la_data_out[13] O
la_data_out[14] O
la_data_out[15] O
la_data_out[16] O
la_data_out[17] O
la_data_out[18] O
la_data_out[19] O
la_data_out[1] O
la_data_out[20] O
la_data_out[21] O
la_data_out[22] O
la_data_out[23] O
la_data_out[24] O
la_data_out[25] O
la_data_out[26] O
la_data_out[27] O
la_data_out[28] O
la_data_out[29] O
la_data_out[2] O
la_data_out[30] O
la_data_out[31] O
la_data_out[32] O
la_data_out[33] O
la_data_out[34] O
la_data_out[35] O
la_data_out[36] O
la_data_out[37] O
la_data_out[38] O
la_data_out[39] O
la_data_out[3] O
la_data_out[40] O
la_data_out[41] O
la_data_out[42] O
la_data_out[43] O
la_data_out[44] O
la_data_out[45] O
la_data_out[46] O
la_data_out[47] O
la_data_out[48] O
la_data_out[49] O
la_data_out[4] O
la_data_out[50] O
la_data_out[51] O
la_data_out[52] O
la_data_out[53] O
la_data_out[54] O
la_data_out[55] O
la_data_out[56] O
la_data_out[57] O
la_data_out[58] O
la_data_out[59] O
la_data_out[5] O
la_data_out[60] O
la_data_out[61] O
la_data_out[62] O
la_data_out[63] O
la_data_out[6] O
la_data_out[7] O
la_data_out[8] O
la_data_out[9] O
la_oenb[0] I
la_oenb[10] I
la_oenb[11] I
la_oenb[12] I
la_oenb[13] I
la_oenb[14] I
la_oenb[15] I
la_oenb[16] I
la_oenb[17] I
la_oenb[18] I
la_oenb[19] I
la_oenb[1] I
la_oenb[20] I
la_oenb[21] I
la_oenb[22] I
la_oenb[23] I
la_oenb[24] I
la_oenb[25] I
la_oenb[26] I
la_oenb[27] I
la_oenb[28] I
la_oenb[29] I
la_oenb[2] I
la_oenb[30] I
la_oenb[31] I
la_oenb[32] I
la_oenb[33] I
la_oenb[34] I
la_oenb[35] I
la_oenb[36] I
la_oenb[37] I
la_oenb[38] I
la_oenb[39] I
la_oenb[3] I
la_oenb[40] I
la_oenb[41] I
la_oenb[42] I
la_oenb[43] I
la_oenb[44] I
la_oenb[45] I
la_oenb[46] I
la_oenb[47] I
la_oenb[48] I
la_oenb[49] I
la_oenb[4] I
la_oenb[50] I
la_oenb[51] I
la_oenb[52] I
la_oenb[53] I
la_oenb[54] I
la_oenb[55] I
la_oenb[56] I
la_oenb[57] I
la_oenb[58] I
la_oenb[59] I
la_oenb[5] I
la_oenb[60] I
la_oenb[61] I
la_oenb[62] I
la_oenb[63] I
la_oenb[6] I
la_oenb[7] I
la_oenb[8] I
la_oenb[9] I
user_clock2 I
user_irq[0] O
user_irq[1] O
user_irq[2] O
wb_clk_i I
wb_rst_i I
wbs_ack_o O
wbs_adr_i[0] I
wbs_adr_i[10] I
wbs_adr_i[11] I
wbs_adr_i[12] I
wbs_adr_i[13] I
wbs_adr_i[14] I
wbs_adr_i[15] I
wbs_adr_i[16] I
wbs_adr_i[17] I
wbs_adr_i[18] I
wbs_adr_i[19] I
wbs_adr_i[1] I
wbs_adr_i[20] I
wbs_adr_i[21] I
wbs_adr_i[22] I
wbs_adr_i[23] I
wbs_adr_i[24] I
wbs_adr_i[25] I
wbs_adr_i[26] I
wbs_adr_i[27] I
wbs_adr_i[28] I
wbs_adr_i[29] I
wbs_adr_i[2] I
wbs_adr_i[30] I
wbs_adr_i[31] I
wbs_adr_i[3] I
wbs_adr_i[4] I
wbs_adr_i[5] I
wbs_adr_i[6] I
wbs_adr_i[7] I
wbs_adr_i[8] I
wbs_adr_i[9] I
wbs_cyc_i I
wbs_dat_i[0] I
wbs_dat_i[10] I
wbs_dat_i[11] I
wbs_dat_i[12] I
wbs_dat_i[13] I
wbs_dat_i[14] I
wbs_dat_i[15] I
wbs_dat_i[16] I
wbs_dat_i[17] I
wbs_dat_i[18] I
wbs_dat_i[19] I
wbs_dat_i[1] I
wbs_dat_i[20] I
wbs_dat_i[21] I
wbs_dat_i[22] I
wbs_dat_i[23] I
wbs_dat_i[24] I
wbs_dat_i[25] I
wbs_dat_i[26] I
wbs_dat_i[27] I
wbs_dat_i[28] I
wbs_dat_i[29] I
wbs_dat_i[2] I
wbs_dat_i[30] I
wbs_dat_i[31] I
wbs_dat_i[3] I
wbs_dat_i[4] I
wbs_dat_i[5] I
wbs_dat_i[6] I
wbs_dat_i[7] I
wbs_dat_i[8] I
wbs_dat_i[9] I
wbs_dat_o[0] O
wbs_dat_o[10] O
wbs_dat_o[11] O
wbs_dat_o[12] O
wbs_dat_o[13] O
wbs_dat_o[14] O
wbs_dat_o[15] O
wbs_dat_o[16] O
wbs_dat_o[17] O
wbs_dat_o[18] O
wbs_dat_o[19] O
wbs_dat_o[1] O
wbs_dat_o[20] O
wbs_dat_o[21] O
wbs_dat_o[22] O
wbs_dat_o[23] O
wbs_dat_o[24] O
wbs_dat_o[25] O
wbs_dat_o[26] O
wbs_dat_o[27] O
wbs_dat_o[28] O
wbs_dat_o[29] O
wbs_dat_o[2] O
wbs_dat_o[30] O
wbs_dat_o[31] O
wbs_dat_o[3] O
wbs_dat_o[4] O
wbs_dat_o[5] O
wbs_dat_o[6] O
wbs_dat_o[7] O
wbs_dat_o[8] O
wbs_dat_o[9] O
wbs_sel_i[0] I
wbs_sel_i[1] I
wbs_sel_i[2] I
wbs_sel_i[3] I
wbs_stb_i I
wbs_we_i I

*D_NET *1 0.477428
*CONN
*P io_in[0] I
*I *419:io_in[0] I *D DSP48
*CAP
1 io_in[0] 0.00471208
2 *419:io_in[0] 0.00023556
3 *1:12 0.0619623
4 *1:11 0.0617267
5 *1:9 0.0681527
6 *1:7 0.0728648
7 *419:io_in[0] *24:19 0.000249634
8 *1:9 *116:8 0
9 *1:9 *118:8 0
10 *1:9 *122:8 0
11 *1:9 *123:10 0.00205847
12 *1:9 *127:8 0.000866593
13 *1:9 *128:8 0
14 *1:9 *130:10 0.00195269
15 *1:9 *141:10 0
16 *1:9 *163:8 0
17 *1:9 *178:8 0
18 *1:9 *369:8 0
19 *1:9 *381:12 0
20 *1:12 *21:16 0
21 *1:12 *159:11 0.202646
*RES
1 io_in[0] *1:7 37.305 
2 *1:7 *1:9 542.7 
3 *1:9 *1:11 4.5 
4 *1:11 *1:12 724.05 
5 *1:12 *419:io_in[0] 1.845 
*END

*D_NET *2 0.293745
*CONN
*P io_in[10] I
*I *419:io_in[10] I *D DSP48
*CAP
1 io_in[10] 0.000255388
2 *419:io_in[10] 0.00209576
3 *2:11 0.038636
4 *2:10 0.0365402
5 *2:8 0.00580817
6 *2:7 0.00606356
7 *419:io_in[10] *25:15 0.0083254
8 *419:io_in[10] *76:8 0
9 *2:8 *37:8 0.0348329
10 *2:11 *419:io_in[36] 0.0113255
11 *2:11 *63:8 0.0556267
12 *2:11 *69:10 0.00101752
13 *2:11 *75:8 0.0932178
*RES
1 io_in[10] *2:7 6.525 
2 *2:7 *2:8 88.65 
3 *2:8 *2:10 4.5 
4 *2:10 *2:11 478.89 
5 *2:11 *419:io_in[10] 37.845 
*END

*D_NET *3 0.200582
*CONN
*P io_in[11] I
*I *419:io_in[11] I *D DSP48
*CAP
1 io_in[11] 0.000363112
2 *419:io_in[11] 0.00126008
3 *3:19 0.0152956
4 *3:18 0.0187069
5 *3:13 0.0507145
6 *3:11 0.0464063
7 *419:io_in[11] *41:9 0
8 *3:18 *28:16 0
9 *3:19 *419:io_in[24] 0.00685123
10 *3:19 *12:11 0
11 *3:19 *21:19 0.0508925
12 *3:19 *22:19 0.00141819
13 *3:19 *46:10 8.49823e-05
14 *3:19 *113:8 0.00858892
*RES
1 io_in[11] *3:11 3.195 
2 *3:11 *3:13 289.17 
3 *3:13 *3:18 42.39 
4 *3:18 *3:19 205.29 
5 *3:19 *419:io_in[11] 12.105 
*END

*D_NET *4 0.137785
*CONN
*P io_in[12] I
*I *419:io_in[12] I *D DSP48
*CAP
1 io_in[12] 0.000167227
2 *419:io_in[12] 0.00602859
3 *4:13 0.0687251
4 *4:11 0.0628637
5 *4:13 *6:11 0
6 *4:13 *55:16 0
7 *4:13 *82:16 0
*RES
1 io_in[12] *4:11 2.115 
2 *4:11 *4:13 487.53 
3 *4:13 *419:io_in[12] 44.415 
*END

*D_NET *5 0.204593
*CONN
*P io_in[13] I
*I *419:io_in[13] I *D DSP48
*CAP
1 io_in[13] 0.000488137
2 *419:io_in[13] 0.00297928
3 *5:11 0.0537786
4 *5:10 0.0507994
5 *5:8 0.00144877
6 *5:7 0.00193691
7 *419:io_in[13] *87:11 0.00882606
8 *5:8 *6:8 0.00141679
9 *5:8 *7:11 0.023939
10 *5:8 *32:8 0.000186694
11 *5:8 *36:8 0
12 *5:8 *43:11 0.0228815
13 *5:8 *77:17 0.000256967
14 *5:11 *13:8 0.0203295
15 *5:11 *32:11 0
16 *5:11 *50:10 0.0153252
17 *5:11 *77:14 0
*RES
1 io_in[13] *5:7 8.325 
2 *5:7 *5:8 74.43 
3 *5:8 *5:10 4.5 
4 *5:10 *5:11 475.47 
5 *5:11 *419:io_in[13] 34.065 
*END

*D_NET *6 0.207148
*CONN
*P io_in[14] I
*I *419:io_in[14] I *D DSP48
*CAP
1 io_in[14] 0.000661499
2 *419:io_in[14] 0.0061014
3 *6:11 0.0637837
4 *6:10 0.0576823
5 *6:8 0.00901986
6 *6:7 0.00968136
7 *419:io_in[14] *44:13 0
8 *419:io_in[14] *80:15 1.82756e-05
9 *419:io_in[14] *81:16 0
10 *6:8 *7:11 0.00249159
11 *6:8 *43:11 0.0395854
12 *6:11 *80:15 9.74538e-05
13 *6:11 *82:16 0.0166082
14 *4:13 *6:11 0
15 *5:8 *6:8 0.00141679
*RES
1 io_in[14] *6:7 8.685 
2 *6:7 *6:8 130.05 
3 *6:8 *6:10 4.5 
4 *6:10 *6:11 469.71 
5 *6:11 *419:io_in[14] 44.595 
*END

*D_NET *7 0.212393
*CONN
*P io_in[15] I
*I *419:io_in[15] I *D DSP48
*CAP
1 io_in[15] 0.00281871
2 *419:io_in[15] 0.00679054
3 *7:14 0.0637505
4 *7:13 0.0569599
5 *7:11 0.014855
6 *7:10 0.0176738
7 *419:io_in[15] *55:19 0
8 *7:11 *43:11 0.00753363
9 *7:14 *51:14 0.0155799
10 *5:8 *7:11 0.023939
11 *6:8 *7:11 0.00249159
*RES
1 io_in[15] *7:10 31.635 
2 *7:10 *7:11 169.65 
3 *7:11 *7:13 4.5 
4 *7:13 *7:14 462.33 
5 *7:14 *419:io_in[15] 49.635 
*END

*D_NET *8 0.146019
*CONN
*P io_in[16] I
*I *419:io_in[16] I *D DSP48
*CAP
1 io_in[16] 0.000247817
2 *419:io_in[16] 0.000166616
3 *8:19 0.00819209
4 *8:18 0.00802547
5 *8:16 0.0427815
6 *8:15 0.0427815
7 *8:13 0.0217879
8 *8:11 0.0220357
9 *8:19 *83:7 0
*RES
1 io_in[16] *8:11 2.655 
2 *8:11 *8:13 167.67 
3 *8:13 *8:15 4.5 
4 *8:15 *8:16 332.19 
5 *8:16 *8:18 4.5 
6 *8:18 *8:19 53.91 
7 *8:19 *419:io_in[16] 1.305 
*END

*D_NET *9 0.129586
*CONN
*P io_in[17] I
*I *419:io_in[17] I *D DSP48
*CAP
1 io_in[17] 0.001352
2 *419:io_in[17] 9.76714e-05
3 *9:17 0.02057
4 *9:16 0.0204723
5 *9:14 0.0343626
6 *9:13 0.0343626
7 *9:11 0.00838104
8 *9:10 0.00973304
9 *9:10 *46:14 0.000254726
10 *9:17 *46:11 0
11 *9:17 *84:7 0
*RES
1 io_in[17] *9:10 19.935 
2 *9:10 *9:11 64.35 
3 *9:11 *9:13 4.5 
4 *9:13 *9:14 217.35 
5 *9:14 *9:16 4.5 
6 *9:16 *9:17 148.41 
7 *9:17 *419:io_in[17] 0.765 
*END

*D_NET *10 0.088222
*CONN
*P io_in[18] I
*I *419:io_in[18] I *D DSP48
*CAP
1 io_in[18] 0.00212028
2 *419:io_in[18] 0.00242679
3 *10:17 0.0212493
4 *10:16 0.0188225
5 *10:14 0.0119971
6 *10:13 0.0119971
7 *10:11 0.00770354
8 *10:10 0.00982382
9 *10:10 *46:14 0.00208153
*RES
1 io_in[18] *10:10 29.475 
2 *10:10 *10:11 59.13 
3 *10:11 *10:13 4.5 
4 *10:13 *10:14 93.15 
5 *10:14 *10:16 4.5 
6 *10:16 *10:17 139.14 
7 *10:17 *419:io_in[18] 14.985 
*END

*D_NET *11 0.0626066
*CONN
*P io_in[19] I
*I *419:io_in[19] I *D DSP48
*CAP
1 io_in[19] 0.00217831
2 *419:io_in[19] 0.00270866
3 *11:11 0.029125
4 *11:10 0.0285947
5 *11:10 *46:14 0
6 *11:11 *86:9 0
*RES
1 io_in[19] *11:10 25.695 
2 *11:10 *11:11 197.1 
3 *11:11 *419:io_in[19] 17.055 
*END

*D_NET *12 0.756729
*CONN
*P io_in[1] I
*I *419:io_in[1] I *D DSP48
*CAP
1 io_in[1] 0.000470965
2 *419:io_in[1] 0.00163169
3 *12:11 0.0542301
4 *12:10 0.0525984
5 *12:8 0.00316354
6 *12:7 0.00363451
7 *419:io_in[1] *50:9 0
8 *12:8 *39:17 0.263283
9 *12:8 *50:13 0.246564
10 *12:11 *419:io_in[24] 0
11 *12:11 *46:10 0.000232055
12 *12:11 *66:8 0.000881999
13 *12:11 *88:8 0.130038
14 *3:19 *12:11 0
*RES
1 io_in[1] *12:7 8.325 
2 *12:7 *12:8 669.87 
3 *12:8 *12:10 4.5 
4 *12:10 *12:11 566.19 
5 *12:11 *419:io_in[1] 13.905 
*END

*D_NET *13 0.105906
*CONN
*P io_in[20] I
*I *419:io_in[20] I *D DSP48
*CAP
1 io_in[20] 0.0251115
2 *419:io_in[20] 0.00476025
3 *13:8 0.0174662
4 *13:7 0.0127059
5 *13:5 0.0251115
6 *419:io_in[20] *48:11 0
7 *419:io_in[20] *51:13 0.000420877
8 *419:io_in[20] *87:7 0
9 *13:8 *50:10 0
10 *13:8 *77:14 0
11 *5:11 *13:8 0.0203295
*RES
1 io_in[20] *13:5 191.745 
2 *13:5 *13:7 4.5 
3 *13:7 *13:8 121.59 
4 *13:8 *419:io_in[20] 36.315 
*END

*D_NET *14 0.120802
*CONN
*P io_in[21] I
*I *419:io_in[21] I *D DSP48
*CAP
1 io_in[21] 0.0014494
2 *419:io_in[21] 0.000166616
3 *14:17 0.023757
4 *14:16 0.0235904
5 *14:14 0.0299525
6 *14:13 0.0351948
7 *14:10 0.00669167
*RES
1 io_in[21] *14:10 19.935 
2 *14:10 *14:13 44.55 
3 *14:13 *14:14 233.73 
4 *14:14 *14:16 4.5 
5 *14:16 *14:17 172.71 
6 *14:17 *419:io_in[21] 1.305 
*END

*D_NET *15 0.15026
*CONN
*P io_in[22] I
*I *419:io_in[22] I *D DSP48
*CAP
1 io_in[22] 0.00486662
2 *419:io_in[22] 9.76714e-05
3 *15:15 0.00847382
4 *15:14 0.00837615
5 *15:12 0.0450609
6 *15:11 0.0450609
7 *15:9 0.0167288
8 *15:7 0.0215955
9 *15:15 *17:16 0
10 *15:15 *90:7 0
*RES
1 io_in[22] *15:7 37.305 
2 *15:7 *15:9 128.34 
3 *15:9 *15:11 4.5 
4 *15:11 *15:12 351.09 
5 *15:12 *15:14 4.5 
6 *15:14 *15:15 56.61 
7 *15:15 *419:io_in[22] 0.765 
*END

*D_NET *16 0.327364
*CONN
*P io_in[23] I
*I *419:io_in[23] I *D DSP48
*CAP
1 io_in[23] 0.000523307
2 *419:io_in[23] 0.00112208
3 *16:11 0.0294983
4 *16:10 0.0283762
5 *16:8 0.0269806
6 *16:7 0.0275039
7 *419:io_in[23] *27:19 0.000960533
8 *419:io_in[23] *92:8 0.000968242
9 *16:8 *45:14 0.0247798
10 *16:8 *54:16 0.186651
11 *16:11 *54:12 7.7749e-07
*RES
1 io_in[23] *16:7 8.505 
2 *16:7 *16:8 467.37 
3 *16:8 *16:10 4.5 
4 *16:10 *16:11 211.05 
5 *16:11 *419:io_in[23] 18.135 
*END

*D_NET *17 0.237734
*CONN
*P io_in[24] I
*I *419:io_in[24] I *D DSP48
*CAP
1 io_in[24] 0.000201168
2 *419:io_in[24] 0.00264125
3 *17:16 0.0293501
4 *17:15 0.0267089
5 *17:13 0.0858286
6 *17:11 0.0860298
7 *419:io_in[24] *54:13 2.95922e-05
8 *419:io_in[24] *55:12 0
9 *419:io_in[24] *55:15 9.37354e-05
10 *3:19 *419:io_in[24] 0.00685123
11 *12:11 *419:io_in[24] 0
12 *15:15 *17:16 0
*RES
1 io_in[24] *17:11 1.935 
2 *17:11 *17:13 543.51 
3 *17:13 *17:15 4.5 
4 *17:15 *17:16 198.81 
5 *17:16 *419:io_in[24] 34.155 
*END

*D_NET *18 0.218151
*CONN
*P io_in[25] I
*I *419:io_in[25] I *D DSP48
*CAP
1 io_in[25] 0.000125876
2 *419:io_in[25] 0.00258251
3 *18:16 0.0193371
4 *18:15 0.0167546
5 *18:13 0.0896123
6 *18:11 0.0897382
*RES
1 io_in[25] *18:11 1.395 
2 *18:11 *18:13 566.55 
3 *18:13 *18:15 4.5 
4 *18:15 *18:16 124.38 
5 *18:16 *419:io_in[25] 16.695 
*END

*D_NET *19 0.168459
*CONN
*P io_in[26] I
*I *419:io_in[26] I *D DSP48
*CAP
1 io_in[26] 0.00177706
2 *419:io_in[26] 0.000166616
3 *19:12 0.0104396
4 *19:11 0.010273
5 *19:9 0.0720127
6 *19:7 0.0737898
7 *19:9 *91:10 0
*RES
1 io_in[26] *19:7 13.185 
2 *19:7 *19:9 561.78 
3 *19:9 *19:11 4.5 
4 *19:11 *19:12 71.55 
5 *19:12 *419:io_in[26] 1.305 
*END

*D_NET *20 0.29183
*CONN
*P io_in[27] I
*I *419:io_in[27] I *D DSP48
*CAP
1 io_in[27] 0.00035683
2 *419:io_in[27] 0.00021921
3 *20:13 0.0403198
4 *20:11 0.0404574
5 *20:13 *63:8 0.0462754
6 *20:13 *63:14 0.00688778
7 *20:13 *63:18 0.0150906
8 *20:13 *63:22 0.00683335
9 *20:13 *63:24 0.135389
10 *20:13 *96:5 0
*RES
1 io_in[27] *20:11 3.015 
2 *20:11 *20:13 583.47 
3 *20:13 *419:io_in[27] 5.805 
*END

*D_NET *21 0.268711
*CONN
*P io_in[28] I
*I *419:io_in[28] I *D DSP48
*CAP
1 io_in[28] 0.000249598
2 *419:io_in[28] 0.00118921
3 *21:19 0.00792209
4 *21:18 0.00673287
5 *21:16 0.00980574
6 *21:15 0.00980574
7 *21:13 0.0483161
8 *21:11 0.0485657
9 *21:19 *22:19 0.0852317
10 *1:12 *21:16 0
11 *3:19 *21:19 0.0508925
*RES
1 io_in[28] *21:11 2.475 
2 *21:11 *21:13 376.11 
3 *21:13 *21:15 4.5 
4 *21:15 *21:16 73.71 
5 *21:16 *21:18 4.5 
6 *21:18 *21:19 215.01 
7 *21:19 *419:io_in[28] 11.925 
*END

*D_NET *22 0.298336
*CONN
*P io_in[29] I
*I *419:io_in[29] I *D DSP48
*CAP
1 io_in[29] 0.000177869
2 *419:io_in[29] 0.00113426
3 *22:19 0.00354985
4 *22:18 0.00241559
5 *22:16 0.018499
6 *22:15 0.018499
7 *22:13 0.047937
8 *22:11 0.0481149
9 *22:19 *27:19 0.00529392
10 *22:19 *34:11 0.00506957
11 *22:19 *113:8 0.0609947
12 *3:19 *22:19 0.00141819
13 *21:19 *22:19 0.0852317
*RES
1 io_in[29] *22:11 1.935 
2 *22:11 *22:13 373.41 
3 *22:13 *22:15 4.5 
4 *22:15 *22:16 141.03 
5 *22:16 *22:18 4.5 
6 *22:18 *22:19 225.27 
7 *22:19 *419:io_in[29] 11.745 
*END

*D_NET *23 0.667263
*CONN
*P io_in[2] I
*I *419:io_in[2] I *D DSP48
*CAP
1 io_in[2] 0.000427849
2 *419:io_in[2] 0.000284961
3 *23:11 0.0453382
4 *23:10 0.0450533
5 *23:8 0.00328936
6 *23:7 0.00371721
7 *23:8 *32:8 0.208392
8 *23:8 *50:13 0.233459
9 *23:8 *61:10 0.00378327
10 *23:11 *40:9 0.002257
11 *23:11 *61:7 0
12 *23:11 *65:9 0.0948271
13 *23:11 *70:9 0.0106004
14 *23:11 *79:12 0.0158339
*RES
1 io_in[2] *23:7 7.965 
2 *23:7 *23:8 593.91 
3 *23:8 *23:10 4.5 
4 *23:10 *23:11 558.99 
5 *23:11 *419:io_in[2] 15.39 
*END

*D_NET *24 0.317866
*CONN
*P io_in[30] I
*I *419:io_in[30] I *D DSP48
*CAP
1 io_in[30] 0.000113196
2 *419:io_in[30] 0
3 *24:19 0.00993177
4 *24:18 0.00993177
5 *24:16 0.0261904
6 *24:15 0.0261904
7 *24:13 0.0333455
8 *24:11 0.0334587
9 *24:13 *317:12 0
10 *24:13 *341:12 0
11 *24:19 *33:11 0.0785557
12 *24:19 *38:19 0.0635337
13 *24:19 *61:7 0.00238348
14 *24:19 *68:9 0.0169227
15 *24:19 *96:5 0.0170593
16 *419:io_in[0] *24:19 0.000249634
*RES
1 io_in[30] *24:11 1.395 
2 *24:11 *24:13 260.01 
3 *24:13 *24:15 4.5 
4 *24:15 *24:16 200.43 
5 *24:16 *24:18 4.5 
6 *24:18 *24:19 346.23 
7 *24:19 *419:io_in[30] 4.5 
*END

*D_NET *25 0.301442
*CONN
*P io_in[31] I
*I *419:io_in[31] I *D DSP48
*CAP
1 io_in[31] 0.00179421
2 *419:io_in[31] 0.000341422
3 *25:15 0.0160025
4 *25:14 0.0156611
5 *25:12 0.0361095
6 *25:11 0.0361095
7 *25:9 0.0466596
8 *25:7 0.0484538
9 *25:9 *412:14 0
10 *25:15 *59:8 0.0882941
11 *25:15 *75:8 0.00369066
12 *419:io_in[10] *25:15 0.0083254
*RES
1 io_in[31] *25:7 13.185 
2 *25:7 *25:9 357.84 
3 *25:9 *25:11 4.5 
4 *25:11 *25:12 270.99 
5 *25:12 *25:14 4.5 
6 *25:14 *25:15 243.09 
7 *25:15 *419:io_in[31] 6.705 
*END

*D_NET *26 0.38127
*CONN
*P io_in[32] I
*I *419:io_in[32] I *D DSP48
*CAP
1 io_in[32] 0.000323383
2 *419:io_in[32] 0.00188759
3 *26:19 0.00470468
4 *26:18 0.00281709
5 *26:16 0.0466904
6 *26:15 0.0466904
7 *26:13 0.0480691
8 *26:11 0.0483925
9 *26:19 *62:8 0.0956814
10 *26:19 *73:8 0.0770418
11 *26:19 *99:8 0.00504577
12 *26:19 *101:8 0.00392585
*RES
1 io_in[32] *26:11 3.015 
2 *26:11 *26:13 368.01 
3 *26:13 *26:15 4.5 
4 *26:15 *26:16 351.63 
5 *26:16 *26:18 4.5 
6 *26:18 *26:19 253.35 
7 *26:19 *419:io_in[32] 17.145 
*END

*D_NET *27 0.369647
*CONN
*P io_in[33] I
*I *419:io_in[33] I *D DSP48
*CAP
1 io_in[33] 0.00317701
2 *419:io_in[33] 0.000985449
3 *27:19 0.0325573
4 *27:18 0.0315719
5 *27:16 0.0537701
6 *27:15 0.0569471
7 *27:19 *34:11 0.0840476
8 *27:19 *42:10 0.00131476
9 *27:19 *51:10 0.00111792
10 *27:19 *54:12 0.00175401
11 *27:19 *57:8 0
12 *27:19 *84:8 0.00478415
13 *27:19 *92:8 0.0913653
14 *419:io_in[23] *27:19 0.000960533
15 *22:19 *27:19 0.00529392
*RES
1 io_in[33] *27:15 29.385 
2 *27:15 *27:16 413.19 
3 *27:16 *27:18 4.5 
4 *27:18 *27:19 606.51 
5 *27:19 *419:io_in[33] 11.205 
*END

*D_NET *28 0.32256
*CONN
*P io_in[34] I
*I *419:io_in[34] I *D DSP48
*CAP
1 io_in[34] 0.000177869
2 *419:io_in[34] 0.000967942
3 *28:16 0.0630292
4 *28:15 0.0620613
5 *28:13 0.0875732
6 *28:11 0.0877511
7 *419:io_in[34] *419:io_in[35] 0.00902464
8 *419:io_in[34] *75:8 0.0119745
9 *28:16 *76:13 0
10 *3:18 *28:16 0
*RES
1 io_in[34] *28:11 1.935 
2 *28:11 *28:13 666.45 
3 *28:13 *28:15 4.5 
4 *28:15 *28:16 476.01 
5 *28:16 *419:io_in[34] 41.175 
*END

*D_NET *29 0.336416
*CONN
*P io_in[35] I
*I *419:io_in[35] I *D DSP48
*CAP
1 io_in[35] 0.000113196
2 *419:io_in[35] 0.00277609
3 *29:16 0.0735732
4 *29:15 0.0707971
5 *29:13 0.0890777
6 *29:11 0.0891909
7 *419:io_in[35] *67:13 0
8 *419:io_in[35] *75:8 0.00186324
9 *419:io_in[34] *419:io_in[35] 0.00902464
*RES
1 io_in[35] *29:11 1.395 
2 *29:11 *29:13 677.25 
3 *29:13 *29:15 4.5 
4 *29:15 *29:16 543.69 
5 *29:16 *419:io_in[35] 44.595 
*END

*D_NET *30 0.358138
*CONN
*P io_in[36] I
*I *419:io_in[36] I *D DSP48
*CAP
1 io_in[36] 0.00179421
2 *419:io_in[36] 0.000970251
3 *30:12 0.0803712
4 *30:11 0.0794009
5 *30:9 0.0876192
6 *30:7 0.0894135
7 *419:io_in[36] *69:10 0.00724317
8 *30:9 *406:10 0
9 *2:11 *419:io_in[36] 0.0113255
*RES
1 io_in[36] *30:7 13.185 
2 *30:7 *30:9 667.08 
3 *30:9 *30:11 4.5 
4 *30:11 *30:12 610.47 
5 *30:12 *419:io_in[36] 39.015 
*END

*D_NET *31 0.369191
*CONN
*P io_in[37] I
*I *419:io_in[37] I *D DSP48
*CAP
1 io_in[37] 0.000323383
2 *419:io_in[37] 0.00107615
3 *31:16 0.0891123
4 *31:15 0.0880362
5 *31:13 0.0896726
6 *31:11 0.089996
7 *419:io_in[37] *40:9 0.00162828
8 *419:io_in[37] *61:7 0.00934598
9 *31:13 *357:12 0
*RES
1 io_in[37] *31:11 3.015 
2 *31:11 *31:13 682.65 
3 *31:13 *31:15 4.5 
4 *31:15 *31:16 677.79 
5 *31:16 *419:io_in[37] 42.3 
*END

*D_NET *32 0.734875
*CONN
*P io_in[3] I
*I *419:io_in[3] I *D DSP48
*CAP
1 io_in[3] 0.000423463
2 *419:io_in[3] 0.0045662
3 *32:11 0.0384897
4 *32:10 0.0339235
5 *32:8 0.00184111
6 *32:7 0.00226458
7 *32:8 *33:8 2.08301e-05
8 *32:8 *34:8 0.00089689
9 *32:8 *35:8 0.000656534
10 *32:8 *36:8 0.00104534
11 *32:8 *50:13 0.00548045
12 *32:8 *61:10 0.209023
13 *32:8 *77:17 6.18011e-05
14 *32:11 *44:14 0.00522909
15 *32:11 *77:14 0.219814
16 *32:11 *81:16 0.00255966
17 *5:8 *32:8 0.000186694
18 *5:11 *32:11 0
19 *23:8 *32:8 0.208392
*RES
1 io_in[3] *32:7 7.785 
2 *32:7 *32:8 564.21 
3 *32:8 *32:10 4.5 
4 *32:10 *32:11 551.79 
5 *32:11 *419:io_in[3] 36.045 
*END

*D_NET *33 0.70184
*CONN
*P io_in[4] I
*I *419:io_in[4] I *D DSP48
*CAP
1 io_in[4] 0.00045608
2 *419:io_in[4] 0
3 *33:11 0.0192977
4 *33:10 0.0192977
5 *33:8 0.00442712
6 *33:7 0.0048832
7 *33:8 *34:8 0.159005
8 *33:8 *61:10 0.183978
9 *33:11 *38:19 0.014721
10 *33:11 *61:7 0.217197
11 *24:19 *33:11 0.0785557
12 *32:8 *33:8 2.08301e-05
*RES
1 io_in[4] *33:7 7.425 
2 *33:7 *33:8 468.27 
3 *33:8 *33:10 4.5 
4 *33:10 *33:11 544.41 
5 *33:11 *419:io_in[4] 4.5 
*END

*D_NET *34 0.589024
*CONN
*P io_in[5] I
*I *419:io_in[5] I *D DSP48
*CAP
1 io_in[5] 0.000341619
2 *419:io_in[5] 0.00104606
3 *34:11 0.0345836
4 *34:10 0.0335376
5 *34:8 0.00458181
6 *34:7 0.00492343
7 *419:io_in[5] *72:13 0
8 *34:8 *35:8 0.137064
9 *34:11 *83:8 0
10 *34:11 *84:8 0.00533836