*SPEF "ieee 1481-1999"
*DESIGN "user_project_wrapper"
*DATE "11:11:11 Fri 11 11, 1111"
*VENDOR "OpenRCX"
*PROGRAM "Parallel Extraction"
*VERSION "1.0"
*DESIGN_FLOW "NAME_SCOPE LOCAL" "PIN_CAP NONE"
*DIVIDER /
*DELIMITER :
*BUS_DELIMITER []
*T_UNIT 1 NS
*C_UNIT 1 PF
*R_UNIT 1 OHM
*L_UNIT 1 HENRY

*NAME_MAP
*1 io_in[0]
*2 io_in[10]
*3 io_in[11]
*4 io_in[12]
*5 io_in[13]
*6 io_in[14]
*7 io_in[15]
*8 io_in[16]
*9 io_in[17]
*10 io_in[18]
*11 io_in[19]
*12 io_in[1]
*13 io_in[20]
*14 io_in[21]
*15 io_in[22]
*16 io_in[23]
*17 io_in[24]
*18 io_in[25]
*19 io_in[26]
*20 io_in[27]
*21 io_in[28]
*22 io_in[29]
*23 io_in[2]
*24 io_in[30]
*25 io_in[31]
*26 io_in[32]
*27 io_in[33]
*28 io_in[34]
*29 io_in[35]
*30 io_in[36]
*31 io_in[37]
*32 io_in[3]
*33 io_in[4]
*34 io_in[5]
*35 io_in[6]
*36 io_in[7]
*37 io_in[8]
*38 io_in[9]
*39 io_oeb[0]
*40 io_oeb[10]
*41 io_oeb[11]
*42 io_oeb[12]
*43 io_oeb[13]
*44 io_oeb[14]
*45 io_oeb[15]
*46 io_oeb[16]
*47 io_oeb[17]
*48 io_oeb[18]
*49 io_oeb[19]
*50 io_oeb[1]
*51 io_oeb[20]
*52 io_oeb[21]
*53 io_oeb[22]
*54 io_oeb[23]
*55 io_oeb[24]
*56 io_oeb[25]
*57 io_oeb[26]
*58 io_oeb[27]
*59 io_oeb[28]
*60 io_oeb[29]
*61 io_oeb[2]
*62 io_oeb[30]
*63 io_oeb[31]
*64 io_oeb[32]
*65 io_oeb[33]
*66 io_oeb[34]
*67 io_oeb[35]
*68 io_oeb[36]
*69 io_oeb[37]
*70 io_oeb[3]
*71 io_oeb[4]
*72 io_oeb[5]
*73 io_oeb[6]
*74 io_oeb[7]
*75 io_oeb[8]
*76 io_oeb[9]
*77 io_out[0]
*78 io_out[10]
*79 io_out[11]
*80 io_out[12]
*81 io_out[13]
*82 io_out[14]
*83 io_out[15]
*84 io_out[16]
*85 io_out[17]
*86 io_out[18]
*87 io_out[19]
*88 io_out[1]
*89 io_out[20]
*90 io_out[21]
*91 io_out[22]
*92 io_out[23]
*93 io_out[24]
*94 io_out[25]
*95 io_out[26]
*96 io_out[27]
*97 io_out[28]
*98 io_out[29]
*99 io_out[2]
*100 io_out[30]
*101 io_out[31]
*102 io_out[32]
*103 io_out[33]
*104 io_out[34]
*105 io_out[35]
*106 io_out[36]
*107 io_out[37]
*108 io_out[3]
*109 io_out[4]
*110 io_out[5]
*111 io_out[6]
*112 io_out[7]
*113 io_out[8]
*114 io_out[9]
*115 la_data_in[0]
*116 la_data_in[10]
*117 la_data_in[11]
*118 la_data_in[12]
*119 la_data_in[13]
*120 la_data_in[14]
*121 la_data_in[15]
*122 la_data_in[16]
*123 la_data_in[17]
*124 la_data_in[18]
*125 la_data_in[19]
*126 la_data_in[1]
*127 la_data_in[20]
*128 la_data_in[21]
*129 la_data_in[22]
*130 la_data_in[23]
*131 la_data_in[24]
*132 la_data_in[25]
*133 la_data_in[26]
*134 la_data_in[27]
*135 la_data_in[28]
*136 la_data_in[29]
*137 la_data_in[2]
*138 la_data_in[30]
*139 la_data_in[31]
*140 la_data_in[32]
*141 la_data_in[33]
*142 la_data_in[34]
*143 la_data_in[35]
*144 la_data_in[36]
*145 la_data_in[37]
*146 la_data_in[38]
*147 la_data_in[39]
*148 la_data_in[3]
*149 la_data_in[40]
*150 la_data_in[41]
*151 la_data_in[42]
*152 la_data_in[43]
*153 la_data_in[44]
*154 la_data_in[45]
*155 la_data_in[46]
*156 la_data_in[47]
*157 la_data_in[48]
*158 la_data_in[49]
*159 la_data_in[4]
*160 la_data_in[50]
*161 la_data_in[51]
*162 la_data_in[52]
*163 la_data_in[53]
*164 la_data_in[54]
*165 la_data_in[55]
*166 la_data_in[56]
*167 la_data_in[57]
*168 la_data_in[58]
*169 la_data_in[59]
*170 la_data_in[5]
*171 la_data_in[60]
*172 la_data_in[61]
*173 la_data_in[62]
*174 la_data_in[63]
*175 la_data_in[6]
*176 la_data_in[7]
*177 la_data_in[8]
*178 la_data_in[9]
*179 la_data_out[0]
*180 la_data_out[10]
*181 la_data_out[11]
*182 la_data_out[12]
*183 la_data_out[13]
*184 la_data_out[14]
*185 la_data_out[15]
*186 la_data_out[16]
*187 la_data_out[17]
*188 la_data_out[18]
*189 la_data_out[19]
*190 la_data_out[1]
*191 la_data_out[20]
*192 la_data_out[21]
*193 la_data_out[22]
*194 la_data_out[23]
*195 la_data_out[24]
*196 la_data_out[25]
*197 la_data_out[26]
*198 la_data_out[27]
*199 la_data_out[28]
*200 la_data_out[29]
*201 la_data_out[2]
*202 la_data_out[30]
*203 la_data_out[31]
*204 la_data_out[32]
*205 la_data_out[33]
*206 la_data_out[34]
*207 la_data_out[35]
*208 la_data_out[36]
*209 la_data_out[37]
*210 la_data_out[38]
*211 la_data_out[39]
*212 la_data_out[3]
*213 la_data_out[40]
*214 la_data_out[41]
*215 la_data_out[42]
*216 la_data_out[43]
*217 la_data_out[44]
*218 la_data_out[45]
*219 la_data_out[46]
*220 la_data_out[47]
*221 la_data_out[48]
*222 la_data_out[49]
*223 la_data_out[4]
*224 la_data_out[50]
*225 la_data_out[51]
*226 la_data_out[52]
*227 la_data_out[53]
*228 la_data_out[54]
*229 la_data_out[55]
*230 la_data_out[56]
*231 la_data_out[57]
*232 la_data_out[58]
*233 la_data_out[59]
*234 la_data_out[5]
*235 la_data_out[60]
*236 la_data_out[61]
*237 la_data_out[62]
*238 la_data_out[63]
*239 la_data_out[6]
*240 la_data_out[7]
*241 la_data_out[8]
*242 la_data_out[9]
*243 la_oenb[0]
*244 la_oenb[10]
*245 la_oenb[11]
*246 la_oenb[12]
*247 la_oenb[13]
*248 la_oenb[14]
*249 la_oenb[15]
*250 la_oenb[16]
*251 la_oenb[17]
*252 la_oenb[18]
*253 la_oenb[19]
*254 la_oenb[1]
*255 la_oenb[20]
*256 la_oenb[21]
*257 la_oenb[22]
*258 la_oenb[23]
*259 la_oenb[24]
*260 la_oenb[25]
*261 la_oenb[26]
*262 la_oenb[27]
*263 la_oenb[28]
*264 la_oenb[29]
*265 la_oenb[2]
*266 la_oenb[30]
*267 la_oenb[31]
*268 la_oenb[32]
*269 la_oenb[33]
*270 la_oenb[34]
*271 la_oenb[35]
*272 la_oenb[36]
*273 la_oenb[37]
*274 la_oenb[38]
*275 la_oenb[39]
*276 la_oenb[3]
*277 la_oenb[40]
*278 la_oenb[41]
*279 la_oenb[42]
*280 la_oenb[43]
*281 la_oenb[44]
*282 la_oenb[45]
*283 la_oenb[46]
*284 la_oenb[47]
*285 la_oenb[48]
*286 la_oenb[49]
*287 la_oenb[4]
*288 la_oenb[50]
*289 la_oenb[51]
*290 la_oenb[52]
*291 la_oenb[53]
*292 la_oenb[54]
*293 la_oenb[55]
*294 la_oenb[56]
*295 la_oenb[57]
*296 la_oenb[58]
*297 la_oenb[59]
*298 la_oenb[5]
*299 la_oenb[60]
*300 la_oenb[61]
*301 la_oenb[62]
*302 la_oenb[63]
*303 la_oenb[6]
*304 la_oenb[7]
*305 la_oenb[8]
*306 la_oenb[9]
*307 user_clock2
*308 user_irq[0]
*309 user_irq[1]
*310 user_irq[2]
*313 wb_clk_i
*314 wb_rst_i
*315 wbs_ack_o
*316 wbs_adr_i[0]
*317 wbs_adr_i[10]
*318 wbs_adr_i[11]
*319 wbs_adr_i[12]
*320 wbs_adr_i[13]
*321 wbs_adr_i[14]
*322 wbs_adr_i[15]
*323 wbs_adr_i[16]
*324 wbs_adr_i[17]
*325 wbs_adr_i[18]
*326 wbs_adr_i[19]
*327 wbs_adr_i[1]
*328 wbs_adr_i[20]
*329 wbs_adr_i[21]
*330 wbs_adr_i[22]
*331 wbs_adr_i[23]
*332 wbs_adr_i[24]
*333 wbs_adr_i[25]
*334 wbs_adr_i[26]
*335 wbs_adr_i[27]
*336 wbs_adr_i[28]
*337 wbs_adr_i[29]
*338 wbs_adr_i[2]
*339 wbs_adr_i[30]
*340 wbs_adr_i[31]
*341 wbs_adr_i[3]
*342 wbs_adr_i[4]
*343 wbs_adr_i[5]
*344 wbs_adr_i[6]
*345 wbs_adr_i[7]
*346 wbs_adr_i[8]
*347 wbs_adr_i[9]
*348 wbs_cyc_i
*349 wbs_dat_i[0]
*350 wbs_dat_i[10]
*351 wbs_dat_i[11]
*352 wbs_dat_i[12]
*353 wbs_dat_i[13]
*354 wbs_dat_i[14]
*355 wbs_dat_i[15]
*356 wbs_dat_i[16]
*357 wbs_dat_i[17]
*358 wbs_dat_i[18]
*359 wbs_dat_i[19]
*360 wbs_dat_i[1]
*361 wbs_dat_i[20]
*362 wbs_dat_i[21]
*363 wbs_dat_i[22]
*364 wbs_dat_i[23]
*365 wbs_dat_i[24]
*366 wbs_dat_i[25]
*367 wbs_dat_i[26]
*368 wbs_dat_i[27]
*369 wbs_dat_i[28]
*370 wbs_dat_i[29]
*371 wbs_dat_i[2]
*372 wbs_dat_i[30]
*373 wbs_dat_i[31]
*374 wbs_dat_i[3]
*375 wbs_dat_i[4]
*376 wbs_dat_i[5]
*377 wbs_dat_i[6]
*378 wbs_dat_i[7]
*379 wbs_dat_i[8]
*380 wbs_dat_i[9]
*381 wbs_dat_o[0]
*382 wbs_dat_o[10]
*383 wbs_dat_o[11]
*384 wbs_dat_o[12]
*385 wbs_dat_o[13]
*386 wbs_dat_o[14]
*387 wbs_dat_o[15]
*388 wbs_dat_o[16]
*389 wbs_dat_o[17]
*390 wbs_dat_o[18]
*391 wbs_dat_o[19]
*392 wbs_dat_o[1]
*393 wbs_dat_o[20]
*394 wbs_dat_o[21]
*395 wbs_dat_o[22]
*396 wbs_dat_o[23]
*397 wbs_dat_o[24]
*398 wbs_dat_o[25]
*399 wbs_dat_o[26]
*400 wbs_dat_o[27]
*401 wbs_dat_o[28]
*402 wbs_dat_o[29]
*403 wbs_dat_o[2]
*404 wbs_dat_o[30]
*405 wbs_dat_o[31]
*406 wbs_dat_o[3]
*407 wbs_dat_o[4]
*408 wbs_dat_o[5]
*409 wbs_dat_o[6]
*410 wbs_dat_o[7]
*411 wbs_dat_o[8]
*412 wbs_dat_o[9]
*413 wbs_sel_i[0]
*414 wbs_sel_i[1]
*415 wbs_sel_i[2]
*416 wbs_sel_i[3]
*417 wbs_stb_i
*418 wbs_we_i
*419 mprj

*PORTS
io_in[0] I
io_in[10] I
io_in[11] I
io_in[12] I
io_in[13] I
io_in[14] I
io_in[15] I
io_in[16] I
io_in[17] I
io_in[18] I
io_in[19] I
io_in[1] I
io_in[20] I
io_in[21] I
io_in[22] I
io_in[23] I
io_in[24] I
io_in[25] I
io_in[26] I
io_in[27] I
io_in[28] I
io_in[29] I
io_in[2] I
io_in[30] I
io_in[31] I
io_in[32] I
io_in[33] I
io_in[34] I
io_in[35] I
io_in[36] I
io_in[37] I
io_in[3] I
io_in[4] I
io_in[5] I
io_in[6] I
io_in[7] I
io_in[8] I
io_in[9] I
io_oeb[0] O
io_oeb[10] O
io_oeb[11] O
io_oeb[12] O
io_oeb[13] O
io_oeb[14] O
io_oeb[15] O
io_oeb[16] O
io_oeb[17] O
io_oeb[18] O
io_oeb[19] O
io_oeb[1] O
io_oeb[20] O
io_oeb[21] O
io_oeb[22] O
io_oeb[23] O
io_oeb[24] O
io_oeb[25] O
io_oeb[26] O
io_oeb[27] O
io_oeb[28] O
io_oeb[29] O
io_oeb[2] O
io_oeb[30] O
io_oeb[31] O
io_oeb[32] O
io_oeb[33] O
io_oeb[34] O
io_oeb[35] O
io_oeb[36] O
io_oeb[37] O
io_oeb[3] O
io_oeb[4] O
io_oeb[5] O
io_oeb[6] O
io_oeb[7] O
io_oeb[8] O
io_oeb[9] O
io_out[0] O
io_out[10] O
io_out[11] O
io_out[12] O
io_out[13] O
io_out[14] O
io_out[15] O
io_out[16] O
io_out[17] O
io_out[18] O
io_out[19] O
io_out[1] O
io_out[20] O
io_out[21] O
io_out[22] O
io_out[23] O
io_out[24] O
io_out[25] O
io_out[26] O
io_out[27] O
io_out[28] O
io_out[29] O
io_out[2] O
io_out[30] O
io_out[31] O
io_out[32] O
io_out[33] O
io_out[34] O
io_out[35] O
io_out[36] O
io_out[37] O
io_out[3] O
io_out[4] O
io_out[5] O
io_out[6] O
io_out[7] O
io_out[8] O
io_out[9] O
la_data_in[0] I
la_data_in[10] I
la_data_in[11] I
la_data_in[12] I
la_data_in[13] I
la_data_in[14] I
la_data_in[15] I
la_data_in[16] I
la_data_in[17] I
la_data_in[18] I
la_data_in[19] I
la_data_in[1] I
la_data_in[20] I
la_data_in[21] I
la_data_in[22] I
la_data_in[23] I
la_data_in[24] I
la_data_in[25] I
la_data_in[26] I
la_data_in[27] I
la_data_in[28] I
la_data_in[29] I
la_data_in[2] I
la_data_in[30] I
la_data_in[31] I
la_data_in[32] I
la_data_in[33] I
la_data_in[34] I
la_data_in[35] I
la_data_in[36] I
la_data_in[37] I
la_data_in[38] I
la_data_in[39] I
la_data_in[3] I
la_data_in[40] I
la_data_in[41] I
la_data_in[42] I
la_data_in[43] I
la_data_in[44] I
la_data_in[45] I
la_data_in[46] I
la_data_in[47] I
la_data_in[48] I
la_data_in[49] I
la_data_in[4] I
la_data_in[50] I
la_data_in[51] I
la_data_in[52] I
la_data_in[53] I
la_data_in[54] I
la_data_in[55] I
la_data_in[56] I
la_data_in[57] I
la_data_in[58] I
la_data_in[59] I
la_data_in[5] I
la_data_in[60] I
la_data_in[61] I
la_data_in[62] I
la_data_in[63] I
la_data_in[6] I
la_data_in[7] I
la_data_in[8] I
la_data_in[9] I
la_data_out[0] O
la_data_out[10] O
la_data_out[11] O
la_data_out[12] O
la_data_out[13] O
la_data_out[14] O
la_data_out[15] O
la_data_out[16] O
la_data_out[17] O
la_data_out[18] O
la_data_out[19] O
la_data_out[1] O
la_data_out[20] O
la_data_out[21] O
la_data_out[22] O
la_data_out[23] O
la_data_out[24] O
la_data_out[25] O
la_data_out[26] O
la_data_out[27] O
la_data_out[28] O
la_data_out[29] O
la_data_out[2] O
la_data_out[30] O
la_data_out[31] O
la_data_out[32] O
la_data_out[33] O
la_data_out[34] O
la_data_out[35] O
la_data_out[36] O
la_data_out[37] O
la_data_out[38] O
la_data_out[39] O
la_data_out[3] O
la_data_out[40] O
la_data_out[41] O
la_data_out[42] O
la_data_out[43] O
la_data_out[44] O
la_data_out[45] O
la_data_out[46] O
la_data_out[47] O
la_data_out[48] O
la_data_out[49] O
la_data_out[4] O
la_data_out[50] O
la_data_out[51] O
la_data_out[52] O
la_data_out[53] O
la_data_out[54] O
la_data_out[55] O
la_data_out[56] O
la_data_out[57] O
la_data_out[58] O
la_data_out[59] O
la_data_out[5] O
la_data_out[60] O
la_data_out[61] O
la_data_out[62] O
la_data_out[63] O
la_data_out[6] O
la_data_out[7] O
la_data_out[8] O
la_data_out[9] O
la_oenb[0] I
la_oenb[10] I
la_oenb[11] I
la_oenb[12] I
la_oenb[13] I
la_oenb[14] I
la_oenb[15] I
la_oenb[16] I
la_oenb[17] I
la_oenb[18] I
la_oenb[19] I
la_oenb[1] I
la_oenb[20] I
la_oenb[21] I
la_oenb[22] I
la_oenb[23] I
la_oenb[24] I
la_oenb[25] I
la_oenb[26] I
la_oenb[27] I
la_oenb[28] I
la_oenb[29] I
la_oenb[2] I
la_oenb[30] I
la_oenb[31] I
la_oenb[32] I
la_oenb[33] I
la_oenb[34] I
la_oenb[35] I
la_oenb[36] I
la_oenb[37] I
la_oenb[38] I
la_oenb[39] I
la_oenb[3] I
la_oenb[40] I
la_oenb[41] I
la_oenb[42] I
la_oenb[43] I
la_oenb[44] I
la_oenb[45] I
la_oenb[46] I
la_oenb[47] I
la_oenb[48] I
la_oenb[49] I
la_oenb[4] I
la_oenb[50] I
la_oenb[51] I
la_oenb[52] I
la_oenb[53] I
la_oenb[54] I
la_oenb[55] I
la_oenb[56] I
la_oenb[57] I
la_oenb[58] I
la_oenb[59] I
la_oenb[5] I
la_oenb[60] I
la_oenb[61] I
la_oenb[62] I
la_oenb[63] I
la_oenb[6] I
la_oenb[7] I
la_oenb[8] I
la_oenb[9] I
user_clock2 I
user_irq[0] O
user_irq[1] O
user_irq[2] O
wb_clk_i I
wb_rst_i I
wbs_ack_o O
wbs_adr_i[0] I
wbs_adr_i[10] I
wbs_adr_i[11] I
wbs_adr_i[12] I
wbs_adr_i[13] I
wbs_adr_i[14] I
wbs_adr_i[15] I
wbs_adr_i[16] I
wbs_adr_i[17] I
wbs_adr_i[18] I
wbs_adr_i[19] I
wbs_adr_i[1] I
wbs_adr_i[20] I
wbs_adr_i[21] I
wbs_adr_i[22] I
wbs_adr_i[23] I
wbs_adr_i[24] I
wbs_adr_i[25] I
wbs_adr_i[26] I
wbs_adr_i[27] I
wbs_adr_i[28] I
wbs_adr_i[29] I
wbs_adr_i[2] I
wbs_adr_i[30] I
wbs_adr_i[31] I
wbs_adr_i[3] I
wbs_adr_i[4] I
wbs_adr_i[5] I
wbs_adr_i[6] I
wbs_adr_i[7] I
wbs_adr_i[8] I
wbs_adr_i[9] I
wbs_cyc_i I
wbs_dat_i[0] I
wbs_dat_i[10] I
wbs_dat_i[11] I
wbs_dat_i[12] I
wbs_dat_i[13] I
wbs_dat_i[14] I
wbs_dat_i[15] I
wbs_dat_i[16] I
wbs_dat_i[17] I
wbs_dat_i[18] I
wbs_dat_i[19] I
wbs_dat_i[1] I
wbs_dat_i[20] I
wbs_dat_i[21] I
wbs_dat_i[22] I
wbs_dat_i[23] I
wbs_dat_i[24] I
wbs_dat_i[25] I
wbs_dat_i[26] I
wbs_dat_i[27] I
wbs_dat_i[28] I
wbs_dat_i[29] I
wbs_dat_i[2] I
wbs_dat_i[30] I
wbs_dat_i[31] I
wbs_dat_i[3] I
wbs_dat_i[4] I
wbs_dat_i[5] I
wbs_dat_i[6] I
wbs_dat_i[7] I
wbs_dat_i[8] I
wbs_dat_i[9] I
wbs_dat_o[0] O
wbs_dat_o[10] O
wbs_dat_o[11] O
wbs_dat_o[12] O
wbs_dat_o[13] O
wbs_dat_o[14] O
wbs_dat_o[15] O
wbs_dat_o[16] O
wbs_dat_o[17] O
wbs_dat_o[18] O
wbs_dat_o[19] O
wbs_dat_o[1] O
wbs_dat_o[20] O
wbs_dat_o[21] O
wbs_dat_o[22] O
wbs_dat_o[23] O
wbs_dat_o[24] O
wbs_dat_o[25] O
wbs_dat_o[26] O
wbs_dat_o[27] O
wbs_dat_o[28] O
wbs_dat_o[29] O
wbs_dat_o[2] O
wbs_dat_o[30] O
wbs_dat_o[31] O
wbs_dat_o[3] O
wbs_dat_o[4] O
wbs_dat_o[5] O
wbs_dat_o[6] O
wbs_dat_o[7] O
wbs_dat_o[8] O
wbs_dat_o[9] O
wbs_sel_i[0] I
wbs_sel_i[1] I
wbs_sel_i[2] I
wbs_sel_i[3] I
wbs_stb_i I
wbs_we_i I

*D_NET *1 0.662504
*CONN
*P io_in[0] I
*I *419:io_in[0] I *D DSP48
*CAP
1 io_in[0] 0.000271078
2 *419:io_in[0] 0.000215595
3 *1:11 0.058506
4 *1:10 0.0582904
5 *1:8 0.026209
6 *1:7 0.0264801
7 *419:io_in[0] *419:io_in[1] 0.0045384
8 *419:io_in[0] *27:17 0.00155424
9 *1:8 *77:13 0.294788
10 *1:11 *419:io_in[37] 0.010631
11 *1:11 *27:17 2.48679e-05
12 *1:11 *27:19 0.167422
13 *1:11 *71:8 0.0128276
14 *1:11 *73:8 0.000746036
15 *1:11 *99:10 0
*RES
1 io_in[0] *1:7 6.885 
2 *1:7 *1:8 453.51 
3 *1:8 *1:10 4.5 
4 *1:10 *1:11 763.29 
5 *1:11 *419:io_in[0] 21.375 
*END

*D_NET *2 0.358744
*CONN
*P io_in[10] I
*I *419:io_in[10] I *D DSP48
*CAP
1 io_in[10] 0.0002694
2 *419:io_in[10] 0.00313479
3 *2:11 0.0674408
4 *2:10 0.064306
5 *2:8 0.00181936
6 *2:7 0.00208876
7 *419:io_in[10] *38:12 0
8 *419:io_in[10] *112:13 0.00032836
9 *419:io_in[10] *114:13 0
10 *2:8 *5:8 0.109678
11 *2:8 *82:13 0.109678
12 *2:11 *62:14 0
*RES
1 io_in[10] *2:7 6.705 
2 *2:7 *2:8 160.83 
3 *2:8 *2:10 4.5 
4 *2:10 *2:11 696.87 
5 *2:11 *419:io_in[10] 35.235 
*END

*D_NET *3 0.1885
*CONN
*P io_in[11] I
*I *419:io_in[11] I *D DSP48
*CAP
1 io_in[11] 0.000280649
2 *419:io_in[11] 0.0015992
3 *3:16 0.0262879
4 *3:15 0.0246887
5 *3:13 0.0618394
6 *3:11 0.0621201
7 *419:io_in[11] *40:10 0.0111274
8 *419:io_in[11] *41:7 0
9 *419:io_in[11] *103:10 0.000556364
10 *3:16 *43:7 0
11 *3:16 *43:9 0
*RES
1 io_in[11] *3:11 2.655 
2 *3:11 *3:13 673.47 
3 *3:13 *3:15 4.5 
4 *3:15 *3:16 244.17 
5 *3:16 *419:io_in[11] 32.355 
*END

*D_NET *4 0.189861
*CONN
*P io_in[12] I
*I *419:io_in[12] I *D DSP48
*CAP
1 io_in[12] 0.000215438
2 *419:io_in[12] 9.37343e-05
3 *4:16 0.0320758
4 *4:15 0.0319821
5 *4:13 0.0626391
6 *4:11 0.0628545
*RES
1 io_in[12] *4:11 2.115 
2 *4:11 *4:13 682.83 
3 *4:13 *4:15 4.5 
4 *4:15 *4:16 316.17 
5 *4:16 *419:io_in[12] 0.945 
*END

*D_NET *5 0.374181
*CONN
*P io_in[13] I
*I *419:io_in[13] I *D DSP48
*CAP
1 io_in[13] 0.000239227
2 *419:io_in[13] 0.000768915
3 *5:11 0.0546492
4 *5:10 0.0538803
5 *5:8 0.0218279
6 *5:7 0.0220671
7 *5:8 *77:13 0.00472593
8 *5:8 *82:13 0.0456227
9 *5:11 *419:io_in[16] 0.000806911
10 *5:11 *419:io_in[18] 0.000915692
11 *5:11 *26:19 0.00984066
12 *5:11 *32:19 0.00178427
13 *5:11 *40:10 0.0174697
14 *5:11 *49:10 0
15 *5:11 *57:10 0.0299037
16 *5:11 *88:10 0
17 *5:11 *103:10 0
18 *2:8 *5:8 0.109678
*RES
1 io_in[13] *5:7 6.525 
2 *5:7 *5:8 375.03 
3 *5:8 *5:10 4.5 
4 *5:10 *5:11 672.39 
5 *5:11 *419:io_in[13] 11.385 
*END

*D_NET *6 0.221869
*CONN
*P io_in[14] I
*I *419:io_in[14] I *D DSP48
*CAP
1 io_in[14] 0.0039856
2 *419:io_in[14] 0.00158031
3 *6:12 0.0457737
4 *6:11 0.0441934
5 *6:9 0.0557252
6 *6:7 0.0597108
7 *419:io_in[14] *40:10 0.0103811
8 *419:io_in[14] *103:10 0.000519051
9 *6:12 *46:9 0
*RES
1 io_in[14] *6:7 43.425 
2 *6:7 *6:9 608.94 
3 *6:9 *6:11 4.5 
4 *6:11 *6:12 438.57 
5 *6:12 *419:io_in[14] 31.275 
*END

*D_NET *7 0.579383
*CONN
*P io_in[15] I
*I *419:io_in[15] I *D DSP48
*CAP
1 io_in[15] 0.000255689
2 *419:io_in[15] 0.00071372
3 *7:11 0.050234
4 *7:10 0.0495203
5 *7:8 0.0425294
6 *7:7 0.0427851
7 *419:io_in[15] *25:13 0.00155413
8 *419:io_in[15] *44:10 0.00155413
9 *7:8 *45:14 0.390236
10 *7:11 *14:10 0
11 *7:11 *82:9 0
*RES
1 io_in[15] *7:7 6.885 
2 *7:7 *7:8 643.05 
3 *7:8 *7:10 4.5 
4 *7:10 *7:11 491.67 
5 *7:11 *419:io_in[15] 16.695 
*END

*D_NET *8 0.380623
*CONN
*P io_in[16] I
*I *419:io_in[16] I *D DSP48
*CAP
1 io_in[16] 0.000680288
2 *419:io_in[16] 0.000839092
3 *8:11 0.0498895
4 *8:10 0.0490504
5 *8:8 0.0350795
6 *8:7 0.0357598
7 *419:io_in[16] *26:19 0.00553311
8 *419:io_in[16] *46:9 0
9 *8:8 io_oeb[16] 0
10 *8:8 io_out[20] 0
11 *8:8 *10:8 0.199254
12 *8:8 *53:14 0.00373018
13 *8:11 *419:io_in[17] 0
14 *8:11 *47:9 0
15 *5:11 *419:io_in[16] 0.000806911
*RES
1 io_in[16] *8:7 11.025 
2 *8:7 *8:8 518.49 
3 *8:8 *8:10 4.5 
4 *8:10 *8:11 486.81 
5 *8:11 *419:io_in[16] 23.175 
*END

*D_NET *9 0.196889
*CONN
*P io_in[17] I
*I *419:io_in[17] I *D DSP48
*CAP
1 io_in[17] 0.000291323
2 *419:io_in[17] 0.00346882
3 *9:16 0.0400077
4 *9:15 0.0365389
5 *9:13 0.046924
6 *9:11 0.0472153
7 *9:16 *52:10 0.0224433
8 *8:11 *419:io_in[17] 0
*RES
1 io_in[17] *9:11 3.015 
2 *9:11 *9:13 468.27 
3 *9:13 *9:15 4.5 
4 *9:15 *9:16 410.49 
5 *9:16 *419:io_in[17] 36.675 
*END

*D_NET *10 0.399364
*CONN
*P io_in[18] I
*I *419:io_in[18] I *D DSP48
*CAP
1 io_in[18] 0.000662434
2 *419:io_in[18] 0.000928314
3 *10:11 0.0487843
4 *10:10 0.047856
5 *10:8 0.00893016
6 *10:7 0.00959259
7 *419:io_in[18] *26:19 0.00627904
8 *10:8 *49:14 0.021635
9 *10:8 *53:14 0.0112527
10 *10:8 *87:22 0.0243084
11 *10:11 *419:io_in[19] 0.0189651
12 *10:11 *51:17 0
13 *5:11 *419:io_in[18] 0.000915692
14 *8:8 *10:8 0.199254
*RES
1 io_in[18] *10:7 10.845 
2 *10:7 *10:8 288.45 
3 *10:8 *10:10 4.5 
4 *10:10 *10:11 486.99 
5 *10:11 *419:io_in[18] 24.255 
*END

*D_NET *11 0.165679
*CONN
*P io_in[19] I
*I *419:io_in[19] I *D DSP48
*CAP
1 io_in[19] 0.000224243
2 *419:io_in[19] 0.00232559
3 *11:16 0.0181254
4 *11:15 0.0157998
5 *11:13 0.0466682
6 *11:11 0.0468924
7 *419:io_in[19] *49:10 0.000352143
8 *419:io_in[19] *51:17 0
9 *419:io_in[19] *70:8 0.000236245
10 *419:io_in[19] *87:13 0
11 *419:io_in[19] *98:8 0.000236245
12 *11:16 *89:16 0.0158533
13 *10:11 *419:io_in[19] 0.0189651
*RES
1 io_in[19] *11:11 2.475 
2 *11:11 *11:13 465.57 
3 *11:13 *11:15 4.5 
4 *11:15 *11:16 179.55 
5 *11:16 *419:io_in[19] 49.185 
*END

*D_NET *12 0.231856
*CONN
*P io_in[1] I
*I *419:io_in[1] I *D DSP48
*CAP
1 io_in[1] 0.000280649
2 *419:io_in[1] 0.000796777
3 *12:16 0.0401028
4 *12:15 0.039306
5 *12:13 0.0729397
6 *12:11 0.0732204
7 *419:io_in[1] *27:17 0.000671432
8 *12:13 *130:14 0
9 *12:13 *153:16 0
10 *12:13 *361:14 0
11 *12:13 *371:14 0
12 *419:io_in[0] *419:io_in[1] 0.0045384
*RES
1 io_in[1] *12:11 2.655 
2 *12:11 *12:13 777.51 
3 *12:13 *12:15 4.5 
4 *12:15 *12:16 391.59 
5 *12:16 *419:io_in[1] 21.825 
*END

*D_NET *13 0.114532
*CONN
*P io_in[20] I
*I *419:io_in[20] I *D DSP48
*CAP
1 io_in[20] 0.00435097
2 *419:io_in[20] 0.00260961
3 *13:15 0.0177704
4 *13:14 0.0151608
5 *13:12 0.00662486
6 *13:11 0.00662486
7 *13:9 0.0285196
8 *13:7 0.0328706
9 *13:15 *87:13 0
*RES
1 io_in[20] *13:7 43.245 
2 *13:7 *13:9 284.94 
3 *13:9 *13:11 4.5 
4 *13:11 *13:12 70.29 
5 *13:12 *13:14 4.5 
6 *13:14 *13:15 149.94 
7 *13:15 *419:io_in[20] 23.895 
*END

*D_NET *14 0.110639
*CONN
*P io_in[21] I
*I *419:io_in[21] I *D DSP48
*CAP
1 io_in[21] 0.00109758
2 *419:io_in[21] 0.00252911
3 *14:19 0.00715667
4 *14:14 0.00903118
5 *14:11 0.0470654
6 *14:10 0.0437594
7 *419:io_in[21] *57:11 0
8 *14:10 *53:14 0
9 *14:19 *57:11 0
10 *7:11 *14:10 0
*RES
1 io_in[21] *14:10 19.215 
2 *14:10 *14:11 425.43 
3 *14:11 *14:14 46.53 
4 *14:14 *14:19 49.41 
5 *14:19 *419:io_in[21] 23.085 
*END

*D_NET *15 0.131764
*CONN
*P io_in[22] I
*I *419:io_in[22] I *D DSP48
*CAP
1 io_in[22] 0.000290594
2 *419:io_in[22] 9.37343e-05
3 *15:19 0.0233467
4 *15:18 0.0232529
5 *15:16 0.0150878
6 *15:15 0.0150878
7 *15:13 0.027157
8 *15:11 0.0274476
9 *15:16 *40:14 0
10 *15:19 *90:7 0
*RES
1 io_in[22] *15:11 3.015 
2 *15:11 *15:13 271.17 
3 *15:13 *15:15 4.5 
4 *15:15 *15:16 162.09 
5 *15:16 *15:18 4.5 
6 *15:18 *15:19 228.33 
7 *15:19 *419:io_in[22] 0.945 
*END

*D_NET *16 0.151933
*CONN
*P io_in[23] I
*I *419:io_in[23] I *D DSP48
*CAP
1 io_in[23] 0.000104982
2 *419:io_in[23] 4.01718e-05
3 *16:19 0.0289734
4 *16:18 0.0289332
5 *16:16 0.0254351
6 *16:15 0.0254351
7 *16:13 0.0214531
8 *16:11 0.0215581
*RES
1 io_in[23] *16:11 1.395 
2 *16:11 *16:13 214.47 
3 *16:13 *16:15 4.5 
4 *16:15 *16:16 275.49 
5 *16:16 *16:18 4.5 
6 *16:18 *16:19 285.03 
7 *16:19 *419:io_in[23] 0.405 
*END

*D_NET *17 0.167012
*CONN
*P io_in[24] I
*I *419:io_in[24] I *D DSP48
*CAP
1 io_in[24] 0.00211434
2 *419:io_in[24] 0.00263634
3 *17:14 0.0185887
4 *17:13 0.0159523
5 *17:11 0.0320886
6 *17:10 0.0320886
7 *17:8 0.0307146
8 *17:7 0.0328289
9 *419:io_in[24] *55:11 0
10 *419:io_in[24] *92:7 0
11 *17:14 *89:17 0
*RES
1 io_in[24] *17:7 26.865 
2 *17:7 *17:8 306.63 
3 *17:8 *17:10 4.5 
4 *17:10 *17:11 347.31 
5 *17:11 *17:13 4.5 
6 *17:13 *17:14 158.04 
7 *17:14 *419:io_in[24] 24.255 
*END

*D_NET *18 0.154867
*CONN
*P io_in[25] I
*I *419:io_in[25] I *D DSP48
*CAP
1 io_in[25] 0.00261615
2 *419:io_in[25] 0.00259799
3 *18:22 0.0188256
4 *18:21 0.0162276
5 *18:19 0.0325789
6 *18:18 0.0325789
7 *18:16 0.0234126
8 *18:15 0.0260288
9 *18:22 *93:9 0
*RES
1 io_in[25] *18:15 31.905 
2 *18:15 *18:16 233.73 
3 *18:16 *18:18 4.5 
4 *18:18 *18:19 352.53 
5 *18:19 *18:21 4.5 
6 *18:21 *18:22 160.74 
7 *18:22 *419:io_in[25] 23.895 
*END

*D_NET *19 0.142418
*CONN
*P io_in[26] I
*I *419:io_in[26] I *D DSP48
*CAP
1 io_in[26] 0.00113819
2 *419:io_in[26] 0.0025384
3 *19:14 0.0211903
4 *19:13 0.0186519
5 *19:11 0.0346024
6 *19:10 0.0346024
7 *19:8 0.0142779
8 *19:7 0.0154161
9 *19:11 *78:14 0
*RES
1 io_in[26] *19:7 16.065 
2 *19:7 *19:8 142.47 
3 *19:8 *19:10 4.5 
4 *19:10 *19:11 374.13 
5 *19:11 *19:13 4.5 
6 *19:13 *19:14 185.04 
7 *19:14 *419:io_in[26] 23.355 
*END

*D_NET *20 0.135115
*CONN
*P io_in[27] I
*I *419:io_in[27] I *D DSP48
*CAP
1 io_in[27] 0.000310538
2 *419:io_in[27] 9.37343e-05
3 *20:22 0.0067709
4 *20:21 0.00667717
5 *20:19 0.0164735
6 *20:18 0.0164735
7 *20:16 0.0215438
8 *20:15 0.0215438
9 *20:13 0.0224587
10 *20:11 0.0227693
*RES
1 io_in[27] *20:11 2.835 
2 *20:11 *20:13 219.51 
3 *20:13 *20:15 4.5 
4 *20:15 *20:16 214.83 
5 *20:16 *20:18 4.5 
6 *20:18 *20:19 174.33 
7 *20:19 *20:21 4.5 
8 *20:21 *20:22 63.63 
9 *20:22 *419:io_in[27] 0.945 
*END

*D_NET *21 0.123535
*CONN
*P io_in[28] I
*I *419:io_in[28] I *D DSP48
*CAP
1 io_in[28] 0.000167681
2 *419:io_in[28] 4.01718e-05
3 *21:22 0.00617006
4 *21:21 0.00612989
5 *21:19 0.0129967
6 *21:18 0.0129967
7 *21:16 0.0153422
8 *21:15 0.0153422
9 *21:13 0.0270908
10 *21:11 0.0272585
11 *21:16 *90:11 0
12 *21:19 *37:13 0
*RES
1 io_in[28] *21:11 1.755 
2 *21:11 *21:13 265.41 
3 *21:13 *21:15 4.5 
4 *21:15 *21:16 152.73 
5 *21:16 *21:18 4.5 
6 *21:18 *21:19 136.53 
7 *21:19 *21:21 4.5 
8 *21:21 *21:22 58.23 
9 *21:22 *419:io_in[28] 0.405 
*END

*D_NET *22 0.158477
*CONN
*P io_in[29] I
*I *419:io_in[29] I *D DSP48
*CAP
1 io_in[29] 0.0297328
2 *419:io_in[29] 0.00273186
3 *22:11 0.00733163
4 *22:10 0.00459977
5 *22:8 0.0121223
6 *22:7 0.0121223
7 *22:5 0.0297328
8 *419:io_in[29] *60:11 0
9 *419:io_in[29] *97:5 0.00110476
10 *22:8 *47:9 0
11 *22:8 *85:7 0
12 *22:11 *42:10 0.0589991
13 *22:11 *69:10 0
*RES
1 io_in[29] *22:5 322.065 
2 *22:5 *22:7 4.5 
3 *22:7 *22:8 120.15 
4 *22:8 *22:10 4.5 
5 *22:10 *22:11 85.41 
6 *22:11 *419:io_in[29] 30.375 
*END

*D_NET *23 0.358714
*CONN
*P io_in[2] I
*I *419:io_in[2] I *D DSP48
*CAP
1 io_in[2] 0.000215438
2 *419:io_in[2] 7.1664e-05
3 *23:19 0.0132637
4 *23:18 0.013192
5 *23:16 0.0326002
6 *23:15 0.0326002
7 *23:13 0.0445321
8 *23:11 0.0447475
9 *23:16 *30:16 0
10 *23:16 *70:13 0
11 *23:19 *39:9 0.00658998
12 *23:19 *66:9 0.168915
13 *23:19 *99:10 0.00198554
*RES
1 io_in[2] *23:11 2.115 
2 *23:11 *23:13 484.47 
3 *23:13 *23:15 4.5 
4 *23:15 *23:16 324.81 
5 *23:16 *23:18 4.5 
6 *23:18 *23:19 273.15 
7 *23:19 *419:io_in[2] 5.31 
*END

*D_NET *24 0.0945237
*CONN
*P io_in[30] I
*I *419:io_in[30] I *D DSP48
*CAP
1 io_in[30] 0.00236303
2 *419:io_in[30] 0.00378201
3 *24:19 0.0403819
4 *24:18 0.0399998
5 *24:15 0.00576289
6 *419:io_in[30] *62:13 0.00223408
7 *419:io_in[30] *98:7 0
*RES
1 io_in[30] *24:15 29.205 
2 *24:15 *24:18 38.43 
3 *24:18 *24:19 393.03 
4 *24:19 *419:io_in[30] 46.035 
*END

*D_NET *25 0.226871
*CONN
*P io_in[31] I
*I *419:io_in[31] I *D DSP48
*CAP
1 io_in[31] 0.00010158
2 *419:io_in[31] 0.000614787
3 *25:13 0.0225094
4 *25:11 0.0219962
5 *419:io_in[31] *63:9 0
6 *25:13 *26:19 0.00787482
7 *25:13 *32:19 0.146285
8 *25:13 *44:10 0.00111905
9 *25:13 *45:10 0.00155424
10 *25:13 *62:13 0.00230028
11 *25:13 *74:11 0.00230028
12 *25:13 *86:8 0.00206092
13 *25:13 *90:8 0.00787863
14 *25:13 *91:8 0.00872161
15 *25:13 *92:8 0
16 *25:13 *98:8 0
17 *419:io_in[15] *25:13 0.00155413
*RES
1 io_in[31] *25:11 1.215 
2 *25:11 *25:13 424.89 
3 *25:13 *419:io_in[31] 10.125 
*END

*D_NET *26 0.248233
*CONN
*P io_in[32] I
*I *419:io_in[32] I *D DSP48
*CAP
1 io_in[32] 0.000310538
2 *419:io_in[32] 0.000650495
3 *26:19 0.00860659
4 *26:18 0.00795609
5 *26:16 0.00710851
6 *26:15 0.00710851
7 *26:13 0.0165434
8 *26:11 0.0168539
9 *26:16 *50:12 0
10 *26:19 *32:19 0.151507
11 *26:19 *40:10 0.000696291
12 *26:19 *112:13 0.00136385
13 *419:io_in[16] *26:19 0.00553311
14 *419:io_in[18] *26:19 0.00627904
15 *5:11 *26:19 0.00984066
16 *25:13 *26:19 0.00787482
*RES
1 io_in[32] *26:11 2.835 
2 *26:11 *26:13 179.01 
3 *26:13 *26:15 4.5 
4 *26:15 *26:16 70.65 
5 *26:16 *26:18 4.5 
6 *26:18 *26:19 253.53 
7 *26:19 *419:io_in[32] 10.485 
*END

*D_NET *27 0.411498
*CONN
*P io_in[33] I
*I *419:io_in[33] I *D DSP48
*CAP
1 io_in[33] 0.000611329
2 *419:io_in[33] 5.03775e-05
3 *27:19 0.00295879
4 *27:17 0.00478128
5 *27:11 0.0164297
6 *27:10 0.0145568
7 *27:8 0.0125754
8 *27:7 0.0131867
9 *27:8 io_out[31] 0.00853123
10 *27:17 *65:8 0.0148586
11 *27:19 *65:8 0.0035188
12 *27:19 *71:8 0.149766
13 *419:io_in[0] *27:17 0.00155424
14 *419:io_in[1] *27:17 0.000671432
15 *1:11 *27:17 2.48679e-05
16 *1:11 *27:19 0.167422
*RES
1 io_in[33] *27:7 10.665 
2 *27:7 *27:8 131.13 
3 *27:8 *27:10 4.5 
4 *27:10 *27:11 158.04 
5 *27:11 *27:17 34.56 
6 *27:17 *27:19 242.37 
7 *27:19 *419:io_in[33] 4.905 
*END

*D_NET *28 0.31458
*CONN
*P io_in[34] I
*I *419:io_in[34] I *D DSP48
*CAP
1 io_in[34] 0.00113819
2 *419:io_in[34] 0.00109274
3 *28:11 0.0290703
4 *28:10 0.0279775
5 *28:8 0.0210835
6 *28:7 0.0222217
7 *419:io_in[34] *73:8 0.000352295
8 *419:io_in[34] *103:9 0.00169704
9 *419:io_in[34] *111:8 0
10 *28:11 *106:10 0.209947
*RES
1 io_in[34] *28:7 16.065 
2 *28:7 *28:8 210.33 
3 *28:8 *28:10 4.5 
4 *28:10 *28:11 433.53 
5 *28:11 *419:io_in[34] 27.315 
*END

*D_NET *29 0.426795
*CONN
*P io_in[35] I
*I *419:io_in[35] I *D DSP48
*CAP
1 io_in[35] 0.000237175
2 *419:io_in[35] 0.00137208
3 *29:19 0.00683471
4 *29:18 0.00546263
5 *29:16 0.0283301
6 *29:15 0.0283301
7 *29:13 0.016271
8 *29:11 0.0165082
9 *29:16 *385:17 0
10 *29:19 *34:11 0.15673
11 *29:19 *106:10 0.0134701
12 *29:19 *110:10 0.153248
*RES
1 io_in[35] *29:11 2.295 
2 *29:11 *29:13 173.61 
3 *29:13 *29:15 4.5 
4 *29:15 *29:16 281.43 
5 *29:16 *29:18 4.5 
6 *29:18 *29:19 280.35 
7 *29:19 *419:io_in[35] 17.415 
*END

*D_NET *30 0.176259
*CONN
*P io_in[36] I
*I *419:io_in[36] I *D DSP48
*CAP
1 io_in[36] 0.00010158
2 *419:io_in[36] 0.00114113
3 *30:16 0.0345555
4 *30:15 0.0334143
5 *30:13 0.0459686
6 *30:11 0.0460701
7 *419:io_in[36] *99:11 0.0121231
8 *30:16 *70:13 0.00288466
9 *23:16 *30:16 0
*RES
1 io_in[36] *30:11 1.215 
2 *30:11 *30:13 480.15 
3 *30:13 *30:15 4.5 
4 *30:15 *30:16 334.89 
5 *30:16 *419:io_in[36] 37.08 
*END

*D_NET *31 0.197034
*CONN
*P io_in[37] I
*I *419:io_in[37] I *D DSP48
*CAP
1 io_in[37] 0.000310538
2 *419:io_in[37] 0.000263805
3 *31:16 0.0412244
4 *31:15 0.0409606
5 *31:13 0.0463511
6 *31:11 0.0466616
7 *419:io_in[37] *69:9 0
8 *419:io_in[37] *71:8 0.010631
9 *31:13 *377:16 0
10 *31:16 *32:16 0
11 *1:11 *419:io_in[37] 0.010631
*RES
1 io_in[37] *31:11 2.835 
2 *31:11 *31:13 485.55 
3 *31:13 *31:15 4.5 
4 *31:15 *31:16 407.97 
5 *31:16 *419:io_in[37] 24.795 
*END

*D_NET *32 0.456844
*CONN
*P io_in[3] I
*I *419:io_in[3] I *D DSP48
*CAP
1 io_in[3] 0.000145659
2 *419:io_in[3] 0.000620972
3 *32:19 0.00752055
4 *32:18 0.00689958
5 *32:16 0.026918
6 *32:15 0.026918
7 *32:13 0.0440498
8 *32:11 0.0441954
9 *32:16 *121:5 0
10 *32:19 *86:8 0
11 *5:11 *32:19 0.00178427
12 *25:13 *32:19 0.146285
13 *26:19 *32:19 0.151507
14 *31:16 *32:16 0
*RES
1 io_in[3] *32:11 1.575 
2 *32:11 *32:13 479.07 
3 *32:13 *32:15 4.5 
4 *32:15 *32:16 267.57 
5 *32:16 *32:18 4.5 
6 *32:18 *32:19 270.99 
7 *32:19 *419:io_in[3] 10.305 
*END

*D_NET *33 0.470923
*CONN
*P io_in[4] I
*I *419:io_in[4] I *D DSP48
*CAP
1 io_in[4] 0.00399985
2 *419:io_in[4] 0.00110072
3 *33:15 0.00673841
4 *33:14 0.0056377
5 *33:12 0.0206501
6 *33:11 0.0206501
7 *33:9 0.0389178
8 *33:7 0.0429176
9 *419:io_in[4] *108:7 0
10 *33:9 *171:14 0.000935655
11 *33:9 *173:22 0
12 *33:9 *307:14 0
13 *33:15 *61:10 0.186571